OA_mitDA.mol
     RDKit          3D

123124  0  0  0  0  0  0  0  0999 V2000
    1.2310    0.8642    0.4077 N   0  0  0  0  0  0  0  0  0  0  0  0
   -9.2944    2.5997    1.0868 C   0  0  0  0  0  0  0  0  0  0  0  0
   -9.6011    2.3161    2.5824 C   0  0  0  0  0  0  0  0  0  0  0  0
  -10.3566    1.8243    0.2683 C   0  0  0  0  0  0  0  0  0  0  0  0
   -7.8548    2.2125    0.6687 C   0  0  0  0  0  0  0  0  0  0  0  0
  -10.3769    0.4165    0.3048 C   0  0  0  0  0  0  0  0  0  0  0  0
  -11.3200    2.4608   -0.5295 C   0  0  0  0  0  0  0  0  0  0  0  0
   -6.8293    1.9904    1.6025 C   0  0  0  0  0  0  0  0  0  0  0  0
   -7.5191    2.1180   -0.6966 C   0  0  0  0  0  0  0  0  0  0  0  0
  -11.3258   -0.3246   -0.4145 C   0  0  0  0  0  0  0  0  0  0  0  0
  -12.2624    1.7173   -1.2501 C   0  0  0  0  0  0  0  0  0  0  0  0
   -5.5200    1.7004    1.1936 C   0  0  0  0  0  0  0  0  0  0  0  0
   -6.2177    1.8127   -1.1029 C   0  0  0  0  0  0  0  0  0  0  0  0
  -12.2802    0.3250   -1.1909 C   0  0  0  0  0  0  0  0  0  0  0  0
   -5.2082    1.6329   -0.1605 C   0  0  0  0  0  0  0  0  0  0  0  0
  -13.2622   -0.2610   -1.9398 O   0  0  0  0  0  0  0  0  0  0  0  0
   -3.9648    1.3730   -0.6657 O   0  0  0  0  0  0  0  0  0  0  0  0
  -13.4957   -1.6708   -1.7848 C   0  0  0  0  0  0  0  0  0  0  0  0
   -2.8539    1.9743    0.0188 C   0  0  0  0  0  0  0  0  0  0  0  0
  -14.3704   -1.9479   -0.5511 C   0  0  0  0  0  0  0  0  0  0  0  0
   -2.7985    3.4859   -0.2510 C   0  0  0  0  0  0  0  0  0  0  0  0
  -14.4741   -3.4436   -0.2445 C   0  0  0  0  0  0  0  0  0  0  0  0
  -15.6938   -1.4457   -0.7958 O   0  0  0  0  0  0  0  0  0  0  0  0
   -1.7082    4.1840    0.5688 C   0  0  0  0  0  0  0  0  0  0  0  0
   -2.5684    3.7016   -1.6559 O   0  0  0  0  0  0  0  0  0  0  0  0
  -13.2420   -3.9387    0.3020 O   0  0  0  0  0  0  0  0  0  0  0  0
   -0.4586    3.4909    0.4299 O   0  0  0  0  0  0  0  0  0  0  0  0
  -12.5061   -4.7407   -0.5028 C   0  0  0  0  0  0  0  0  0  0  0  0
    0.5301    3.9308    1.2557 C   0  0  0  0  0  0  0  0  0  0  0  0
  -11.3109   -5.2630    0.1977 C   0  0  0  0  0  0  0  0  0  0  0  0
  -12.7575   -5.0276   -1.6628 O   0  0  0  0  0  0  0  0  0  0  0  0
    1.8405    3.2589    0.9468 C   0  0  0  0  0  0  0  0  0  0  0  0
    0.3982    4.7932    2.1180 O   0  0  0  0  0  0  0  0  0  0  0  0
  -10.9199   -4.9101    1.4286 C   0  0  0  0  0  0  0  0  0  0  0  0
    1.8624    1.7875    1.3604 C   0  0  0  0  0  0  0  0  0  0  0  0
   -9.3813    4.1380    0.9132 C   0  0  0  0  0  0  0  0  0  0  0  0
    1.9956    0.6820   -0.8296 C   0  0  0  0  0  0  0  0  0  0  0  0
    3.0583   -0.4170   -0.7083 C   0  0  0  0  0  0  0  0  0  0  0  0
    3.8955   -0.5631   -1.9853 C   0  0  0  0  0  0  0  0  0  0  0  0
    4.9159    0.5586   -2.2235 C   0  0  0  0  0  0  0  0  0  0  0  0
    6.0106    0.6933   -1.1549 C   0  0  0  0  0  0  0  0  0  0  0  0
    6.9913   -0.4807   -1.1461 C   0  0  0  0  0  0  0  0  0  0  0  0
    7.9661   -0.4690    0.0382 C   0  0  0  0  0  0  0  0  0  0  0  0
    8.7723    0.8168    0.2492 C   0  0  0  0  0  0  0  0  0  0  0  0
    9.5979    1.2239   -0.9366 C   0  0  0  0  0  0  0  0  0  0  0  0
   10.9189    1.0552   -1.1119 C   0  0  0  0  0  0  0  0  0  0  0  0
   11.8847    0.3686   -0.1854 C   0  0  0  0  0  0  0  0  0  0  0  0
   12.6255   -0.7475   -0.9292 C   0  0  0  0  0  0  0  0  0  0  0  0
   13.6792   -1.4608   -0.0766 C   0  0  0  0  0  0  0  0  0  0  0  0
   13.0761   -2.3442    1.0182 C   0  0  0  0  0  0  0  0  0  0  0  0
   14.1292   -3.1176    1.8183 C   0  0  0  0  0  0  0  0  0  0  0  0
   14.8583   -4.1797    0.9896 C   0  0  0  0  0  0  0  0  0  0  0  0
   15.8164   -5.0442    1.8143 C   0  0  0  0  0  0  0  0  0  0  0  0
   16.9963   -4.2676    2.3744 C   0  0  0  0  0  0  0  0  0  0  0  0
    1.1156   -0.0465    0.8629 H   0  0  0  0  0  0  0  0  0  0  0  0
  -10.6503    2.5335    2.8199 H   0  0  0  0  0  0  0  0  0  0  0  0
   -8.9918    2.9411    3.2472 H   0  0  0  0  0  0  0  0  0  0  0  0
   -9.4135    1.2695    2.8538 H   0  0  0  0  0  0  0  0  0  0  0  0
   -9.6398   -0.1270    0.8942 H   0  0  0  0  0  0  0  0  0  0  0  0
  -11.3606    3.5412   -0.6188 H   0  0  0  0  0  0  0  0  0  0  0  0
   -7.0160    2.0458    2.6701 H   0  0  0  0  0  0  0  0  0  0  0  0
   -8.2756    2.2829   -1.4647 H   0  0  0  0  0  0  0  0  0  0  0  0
  -11.2753   -1.4054   -0.3465 H   0  0  0  0  0  0  0  0  0  0  0  0
  -13.0010    2.2377   -1.8582 H   0  0  0  0  0  0  0  0  0  0  0  0
   -4.7722    1.5173    1.9574 H   0  0  0  0  0  0  0  0  0  0  0  0
   -5.9929    1.7346   -2.1642 H   0  0  0  0  0  0  0  0  0  0  0  0
  -12.5553   -2.2290   -1.7909 H   0  0  0  0  0  0  0  0  0  0  0  0
  -14.0417   -1.9832   -2.6836 H   0  0  0  0  0  0  0  0  0  0  0  0
   -2.8573    1.7398    1.0856 H   0  0  0  0  0  0  0  0  0  0  0  0
   -1.9656    1.4931   -0.4087 H   0  0  0  0  0  0  0  0  0  0  0  0
  -13.9655   -1.4212    0.3217 H   0  0  0  0  0  0  0  0  0  0  0  0
   -3.7581    3.9630   -0.0268 H   0  0  0  0  0  0  0  0  0  0  0  0
  -14.8161   -4.0132   -1.1197 H   0  0  0  0  0  0  0  0  0  0  0  0
  -15.2417   -3.5998    0.5263 H   0  0  0  0  0  0  0  0  0  0  0  0
  -15.8814   -0.7948   -0.0932 H   0  0  0  0  0  0  0  0  0  0  0  0
   -2.0026    4.2091    1.6258 H   0  0  0  0  0  0  0  0  0  0  0  0
   -1.5669    5.2015    0.1952 H   0  0  0  0  0  0  0  0  0  0  0  0
   -3.3023    3.2533   -2.1108 H   0  0  0  0  0  0  0  0  0  0  0  0
  -10.7360   -5.9784   -0.3785 H   0  0  0  0  0  0  0  0  0  0  0  0
    2.6096    3.7874    1.5233 H   0  0  0  0  0  0  0  0  0  0  0  0
    2.0906    3.4294   -0.1047 H   0  0  0  0  0  0  0  0  0  0  0  0
  -11.4674   -4.1919    2.0303 H   0  0  0  0  0  0  0  0  0  0  0  0
  -10.0246   -5.3489    1.8636 H   0  0  0  0  0  0  0  0  0  0  0  0
    1.3372    1.6770    2.3172 H   0  0  0  0  0  0  0  0  0  0  0  0
    2.8966    1.4739    1.5436 H   0  0  0  0  0  0  0  0  0  0  0  0
   -8.6144    4.6488    1.5102 H   0  0  0  0  0  0  0  0  0  0  0  0
  -10.3550    4.5264    1.2379 H   0  0  0  0  0  0  0  0  0  0  0  0
   -9.2317    4.4446   -0.1292 H   0  0  0  0  0  0  0  0  0  0  0  0
    2.4318    1.6222   -1.1820 H   0  0  0  0  0  0  0  0  0  0  0  0
    1.2801    0.3796   -1.6050 H   0  0  0  0  0  0  0  0  0  0  0  0
    2.5468   -1.3697   -0.5266 H   0  0  0  0  0  0  0  0  0  0  0  0
    3.7054   -0.2478    0.1561 H   0  0  0  0  0  0  0  0  0  0  0  0
    4.4137   -1.5313   -1.9656 H   0  0  0  0  0  0  0  0  0  0  0  0
    3.2222   -0.6003   -2.8545 H   0  0  0  0  0  0  0  0  0  0  0  0
    4.3926    1.5165   -2.3079 H   0  0  0  0  0  0  0  0  0  0  0  0
    5.3943    0.3887   -3.1955 H   0  0  0  0  0  0  0  0  0  0  0  0
    6.5651    1.6152   -1.3671 H   0  0  0  0  0  0  0  0  0  0  0  0
    5.5683    0.8308   -0.1668 H   0  0  0  0  0  0  0  0  0  0  0  0
    7.5511   -0.4978   -2.0871 H   0  0  0  0  0  0  0  0  0  0  0  0
    6.4448   -1.4292   -1.1005 H   0  0  0  0  0  0  0  0  0  0  0  0
    7.3963   -0.6683    0.9581 H   0  0  0  0  0  0  0  0  0  0  0  0
    8.6616   -1.3115   -0.0780 H   0  0  0  0  0  0  0  0  0  0  0  0
    9.4021    0.6859    1.1368 H   0  0  0  0  0  0  0  0  0  0  0  0
    8.0982    1.6456    0.4999 H   0  0  0  0  0  0  0  0  0  0  0  0
    9.0526    1.7318   -1.7292 H   0  0  0  0  0  0  0  0  0  0  0  0
   11.3575    1.4555   -2.0261 H   0  0  0  0  0  0  0  0  0  0  0  0
   11.3756   -0.0451    0.6877 H   0  0  0  0  0  0  0  0  0  0  0  0
   12.6041    1.1105    0.1791 H   0  0  0  0  0  0  0  0  0  0  0  0
   13.1340   -0.3189   -1.8034 H   0  0  0  0  0  0  0  0  0  0  0  0
   11.9088   -1.4831   -1.3159 H   0  0  0  0  0  0  0  0  0  0  0  0
   14.2806   -2.0762   -0.7526 H   0  0  0  0  0  0  0  0  0  0  0  0
   14.3574   -0.7242    0.3714 H   0  0  0  0  0  0  0  0  0  0  0  0
   12.3591   -3.0462    0.5779 H   0  0  0  0  0  0  0  0  0  0  0  0
   12.5122   -1.7206    1.7228 H   0  0  0  0  0  0  0  0  0  0  0  0
   13.6276   -3.6100    2.6603 H   0  0  0  0  0  0  0  0  0  0  0  0
   14.8456   -2.4086    2.2450 H   0  0  0  0  0  0  0  0  0  0  0  0
   14.1164   -4.8359    0.5212 H   0  0  0  0  0  0  0  0  0  0  0  0
   15.4226   -3.7111    0.1769 H   0  0  0  0  0  0  0  0  0  0  0  0
   15.2713   -5.5286    2.6326 H   0  0  0  0  0  0  0  0  0  0  0  0
   16.1983   -5.8454    1.1690 H   0  0  0  0  0  0  0  0  0  0  0  0
   17.7125   -4.9541    2.8368 H   0  0  0  0  0  0  0  0  0  0  0  0
   16.6782   -3.5559    3.1412 H   0  0  0  0  0  0  0  0  0  0  0  0
   17.5167   -3.7165    1.5844 H   0  0  0  0  0  0  0  0  0  0  0  0
  2  3  1  0
  2  4  1  0
  2  5  1  0
  4  6  2  0
  4  7  1  0
  5  8  2  0
  5  9  1  0
  6 10  1  0
  7 11  2  0
  8 12  1  0
  9 13  2  0
 10 14  2  0
 11 14  1  0
 12 15  2  0
 13 15  1  0
 14 16  1  0
 15 17  1  0
 16 18  1  0
 17 19  1  0
 18 20  1  0
 19 21  1  0
 20 22  1  0
 20 23  1  0
 21 24  1  0
 21 25  1  0
 22 26  1  0
 24 27  1  0
 26 28  1  0
 27 29  1  0
 28 30  1  0
 28 31  2  0
 29 32  1  0
 29 33  2  0
 30 34  2  0
 32 35  1  0
  2 36  1  0
  1 35  1  0
  1 37  1  0
 37 38  1  0
 38 39  1  0
 39 40  1  0
 40 41  1  0
 41 42  1  0
 42 43  1  0
 43 44  1  0
 44 45  1  0
 45 46  2  0
 46 47  1  0
 47 48  1  0
 48 49  1  0
 49 50  1  0
 50 51  1  0
 51 52  1  0
 52 53  1  0
 53 54  1  0
  1 55  1  0
  3 56  1  0
  3 57  1  0
  3 58  1  0
  6 59  1  0
  7 60  1  0
  8 61  1  0
  9 62  1  0
 10 63  1  0
 11 64  1  0
 12 65  1  0
 13 66  1  0
 18 67  1  0
 18 68  1  0
 19 69  1  0
 19 70  1  0
 20 71  1  0
 21 72  1  0
 22 73  1  0
 22 74  1  0
 23 75  1  0
 24 76  1  0
 24 77  1  0
 25 78  1  0
 30 79  1  0
 32 80  1  0
 32 81  1  0
 34 82  1  0
 34 83  1  0
 35 84  1  0
 35 85  1  0
 36 86  1  0
 36 87  1  0
 36 88  1  0
 37 89  1  0
 37 90  1  0
 38 91  1  0
 38 92  1  0
 39 93  1  0
 39 94  1  0
 40 95  1  0
 40 96  1  0
 41 97  1  0
 41 98  1  0
 42 99  1  0
 42100  1  0
 43101  1  0
 43102  1  0
 44103  1  0
 44104  1  0
 45105  1  0
 46106  1  0
 47107  1  0
 47108  1  0
 48109  1  0
 48110  1  0
 49111  1  0
 49112  1  0
 50113  1  0
 50114  1  0
 51115  1  0
 51116  1  0
 52117  1  0
 52118  1  0
 53119  1  0
 53120  1  0
 54121  1  0
 54122  1  0
 54123  1  0
M  END
