OA_mitbuacrylate.mol
     RDKit          3D

 84 83  0  0  0  0  0  0  0  0999 V2000
   -3.4146   -0.4455    2.5792 N   0  0  0  0  0  0  0  0  0  0  0  0
   -6.5938    0.2932   -0.4385 C   0  0  0  0  0  0  0  0  0  0  0  0
   -5.9254   -0.6145    0.4562 O   0  0  0  0  0  0  0  0  0  0  0  0
   -4.8264   -1.2415   -0.0464 C   0  0  0  0  0  0  0  0  0  0  0  0
   -4.1947   -2.1612    0.9675 C   0  0  0  0  0  0  0  0  0  0  0  0
   -4.4212   -1.1256   -1.1960 O   0  0  0  0  0  0  0  0  0  0  0  0
   -4.2330   -1.6514    2.4081 C   0  0  0  0  0  0  0  0  0  0  0  0
   -3.3694    0.0114    3.9682 C   0  0  0  0  0  0  0  0  0  0  0  0
   -2.4989   -0.8310    4.9099 C   0  0  0  0  0  0  0  0  0  0  0  0
   -1.0041   -0.8503    4.5612 C   0  0  0  0  0  0  0  0  0  0  0  0
   -0.6317   -1.8851    3.4956 C   0  0  0  0  0  0  0  0  0  0  0  0
    0.8824   -2.0370    3.3031 C   0  0  0  0  0  0  0  0  0  0  0  0
    1.5333   -0.8101    2.6577 C   0  0  0  0  0  0  0  0  0  0  0  0
    3.0531   -0.9418    2.4916 C   0  0  0  0  0  0  0  0  0  0  0  0
    3.5330   -2.0888    1.5959 C   0  0  0  0  0  0  0  0  0  0  0  0
    3.0212   -2.0020    0.1885 C   0  0  0  0  0  0  0  0  0  0  0  0
    3.6142   -1.5827   -0.9414 C   0  0  0  0  0  0  0  0  0  0  0  0
    4.9704   -1.0073   -1.2590 C   0  0  0  0  0  0  0  0  0  0  0  0
    5.9802   -0.7924   -0.1323 C   0  0  0  0  0  0  0  0  0  0  0  0
    7.2972   -0.1593   -0.6065 C   0  0  0  0  0  0  0  0  0  0  0  0
    7.3759    1.3620   -0.4346 C   0  0  0  0  0  0  0  0  0  0  0  0
    6.4756    2.1962   -1.3438 C   0  0  0  0  0  0  0  0  0  0  0  0
    6.6889    2.0328   -2.8534 C   0  0  0  0  0  0  0  0  0  0  0  0
    8.0392    2.5400   -3.3702 C   0  0  0  0  0  0  0  0  0  0  0  0
    9.1019    1.4558   -3.4723 C   0  0  0  0  0  0  0  0  0  0  0  0
   -5.9241    1.6629   -0.3662 C   0  0  0  0  0  0  0  0  0  0  0  0
   -6.6635    2.7754   -1.1136 C   0  0  0  0  0  0  0  0  0  0  0  0
   -6.7085    2.5877   -2.6279 C   0  0  0  0  0  0  0  0  0  0  0  0
   -7.6682    1.5750   -2.9491 O   0  0  0  0  0  0  0  0  0  0  0  0
   -7.7920    1.3330   -4.2771 C   0  0  0  0  0  0  0  0  0  0  0  0
   -8.7741    0.2614   -4.5481 C   0  0  0  0  0  0  0  0  0  0  0  0
   -7.1903    1.9033   -5.1742 O   0  0  0  0  0  0  0  0  0  0  0  0
   -9.4880   -0.3868   -3.6184 C   0  0  0  0  0  0  0  0  0  0  0  0
   -3.8079    0.3055    2.0097 H   0  0  0  0  0  0  0  0  0  0  0  0
   -7.6328    0.3620   -0.0993 H   0  0  0  0  0  0  0  0  0  0  0  0
   -6.6080   -0.1163   -1.4534 H   0  0  0  0  0  0  0  0  0  0  0  0
   -3.1530   -2.3306    0.6681 H   0  0  0  0  0  0  0  0  0  0  0  0
   -4.7180   -3.1221    0.9038 H   0  0  0  0  0  0  0  0  0  0  0  0
   -3.8479   -2.4552    3.0447 H   0  0  0  0  0  0  0  0  0  0  0  0
   -5.2657   -1.4555    2.7203 H   0  0  0  0  0  0  0  0  0  0  0  0
   -4.3865    0.0831    4.3742 H   0  0  0  0  0  0  0  0  0  0  0  0
   -2.9737    1.0350    3.9678 H   0  0  0  0  0  0  0  0  0  0  0  0
   -2.5965   -0.3885    5.9103 H   0  0  0  0  0  0  0  0  0  0  0  0
   -2.8851   -1.8524    4.9977 H   0  0  0  0  0  0  0  0  0  0  0  0
   -0.6856    0.1523    4.2572 H   0  0  0  0  0  0  0  0  0  0  0  0
   -0.4509   -1.0904    5.4779 H   0  0  0  0  0  0  0  0  0  0  0  0
   -1.0858   -1.6331    2.5331 H   0  0  0  0  0  0  0  0  0  0  0  0
   -1.0357   -2.8607    3.7922 H   0  0  0  0  0  0  0  0  0  0  0  0
    1.3588   -2.2495    4.2676 H   0  0  0  0  0  0  0  0  0  0  0  0
    1.0469   -2.9140    2.6668 H   0  0  0  0  0  0  0  0  0  0  0  0
    1.3486    0.0730    3.2798 H   0  0  0  0  0  0  0  0  0  0  0  0
    1.0646   -0.6088    1.6873 H   0  0  0  0  0  0  0  0  0  0  0  0
    3.4376    0.0065    2.0946 H   0  0  0  0  0  0  0  0  0  0  0  0
    3.5056   -1.0645    3.4838 H   0  0  0  0  0  0  0  0  0  0  0  0
    3.2160   -3.0505    2.0168 H   0  0  0  0  0  0  0  0  0  0  0  0
    4.6229   -2.1264    1.6260 H   0  0  0  0  0  0  0  0  0  0  0  0
    1.9946   -2.3591    0.0829 H   0  0  0  0  0  0  0  0  0  0  0  0
    2.9911   -1.6496   -1.8376 H   0  0  0  0  0  0  0  0  0  0  0  0
    5.4294   -1.6626   -2.0108 H   0  0  0  0  0  0  0  0  0  0  0  0
    4.7872   -0.0541   -1.7634 H   0  0  0  0  0  0  0  0  0  0  0  0
    6.2330   -1.7747    0.2845 H   0  0  0  0  0  0  0  0  0  0  0  0
    5.5461   -0.1913    0.6738 H   0  0  0  0  0  0  0  0  0  0  0  0
    7.5256   -0.4559   -1.6355 H   0  0  0  0  0  0  0  0  0  0  0  0
    8.1006   -0.5818    0.0118 H   0  0  0  0  0  0  0  0  0  0  0  0
    7.1363    1.6101    0.6073 H   0  0  0  0  0  0  0  0  0  0  0  0
    8.4151    1.6795   -0.5740 H   0  0  0  0  0  0  0  0  0  0  0  0
    6.6161    3.2537   -1.0852 H   0  0  0  0  0  0  0  0  0  0  0  0
    5.4279    1.9778   -1.1097 H   0  0  0  0  0  0  0  0  0  0  0  0
    5.9078    2.6291   -3.3443 H   0  0  0  0  0  0  0  0  0  0  0  0
    6.5160    0.9975   -3.1664 H   0  0  0  0  0  0  0  0  0  0  0  0
    8.4068    3.3693   -2.7550 H   0  0  0  0  0  0  0  0  0  0  0  0
    7.8883    2.9441   -4.3796 H   0  0  0  0  0  0  0  0  0  0  0  0
    9.3600    1.0385   -2.4976 H   0  0  0  0  0  0  0  0  0  0  0  0
    8.7653    0.6377   -4.1167 H   0  0  0  0  0  0  0  0  0  0  0  0
   10.0166    1.8705   -3.9071 H   0  0  0  0  0  0  0  0  0  0  0  0
   -5.8332    1.9514    0.6890 H   0  0  0  0  0  0  0  0  0  0  0  0
   -4.8938    1.5910   -0.7349 H   0  0  0  0  0  0  0  0  0  0  0  0
   -6.1508    3.7206   -0.8981 H   0  0  0  0  0  0  0  0  0  0  0  0
   -7.6827    2.8573   -0.7179 H   0  0  0  0  0  0  0  0  0  0  0  0
   -7.0215    3.5299   -3.0932 H   0  0  0  0  0  0  0  0  0  0  0  0
   -5.7202    2.3065   -3.0096 H   0  0  0  0  0  0  0  0  0  0  0  0
   -8.8886    0.0207   -5.6000 H   0  0  0  0  0  0  0  0  0  0  0  0
   -9.3968   -0.1676   -2.5591 H   0  0  0  0  0  0  0  0  0  0  0  0
  -10.1889   -1.1635   -3.9072 H   0  0  0  0  0  0  0  0  0  0  0  0
  2  3  1  0
  3  4  1  0
  4  5  1  0
  4  6  2  0
  5  7  1  0
  1  7  1  0
  1  8  1  0
  8  9  1  0
  9 10  1  0
 10 11  1  0
 11 12  1  0
 12 13  1  0
 13 14  1  0
 14 15  1  0
 15 16  1  0
 16 17  2  0
 17 18  1  0
 18 19  1  0
 19 20  1  0
 20 21  1  0
 21 22  1  0
 22 23  1  0
 23 24  1  0
 24 25  1  0
  2 26  1  0
 26 27  1  0
 27 28  1  0
 28 29  1  0
 29 30  1  0
 30 31  1  0
 30 32  2  0
 31 33  2  0
  1 34  1  0
  2 35  1  0
  2 36  1  0
  5 37  1  0
  5 38  1  0
  7 39  1  0
  7 40  1  0
  8 41  1  0
  8 42  1  0
  9 43  1  0
  9 44  1  0
 10 45  1  0
 10 46  1  0
 11 47  1  0
 11 48  1  0
 12 49  1  0
 12 50  1  0
 13 51  1  0
 13 52  1  0
 14 53  1  0
 14 54  1  0
 15 55  1  0
 15 56  1  0
 16 57  1  0
 17 58  1  0
 18 59  1  0
 18 60  1  0
 19 61  1  0
 19 62  1  0
 20 63  1  0
 20 64  1  0
 21 65  1  0
 21 66  1  0
 22 67  1  0
 22 68  1  0
 23 69  1  0
 23 70  1  0
 24 71  1  0
 24 72  1  0
 25 73  1  0
 25 74  1  0
 25 75  1  0
 26 76  1  0
 26 77  1  0
 27 78  1  0
 27 79  1  0
 28 80  1  0
 28 81  1  0
 31 82  1  0
 33 83  1  0
 33 84  1  0
M  END
