TBS mit acrylat.mol
     RDKit          3D

110111  0  0  0  0  0  0  0  0999 V2000
   -6.4573    2.5462    0.4813 C   0  0  0  0  0  0  0  0  0  0  0  0
   -6.5635    3.1709    1.8979 C   0  0  0  0  0  0  0  0  0  0  0  0
   -7.4296    1.3653    0.2478 C   0  0  0  0  0  0  0  0  0  0  0  0
   -4.9834    2.1043    0.3170 C   0  0  0  0  0  0  0  0  0  0  0  0
   -8.4226    1.0014    1.1708 C   0  0  0  0  0  0  0  0  0  0  0  0
   -7.3514    0.6210   -0.9452 C   0  0  0  0  0  0  0  0  0  0  0  0
   -4.0708    2.7893   -0.4994 C   0  0  0  0  0  0  0  0  0  0  0  0
   -4.5030    0.9872    1.0304 C   0  0  0  0  0  0  0  0  0  0  0  0
   -9.3039   -0.0574    0.9130 C   0  0  0  0  0  0  0  0  0  0  0  0
   -8.2320   -0.4343   -1.2010 C   0  0  0  0  0  0  0  0  0  0  0  0
   -2.7351    2.3809   -0.5846 C   0  0  0  0  0  0  0  0  0  0  0  0
   -3.1662    0.5778    0.9405 C   0  0  0  0  0  0  0  0  0  0  0  0
   -9.2201   -0.7723   -0.2794 C   0  0  0  0  0  0  0  0  0  0  0  0
   -2.2724    1.2866    0.1439 C   0  0  0  0  0  0  0  0  0  0  0  0
  -10.0272   -1.8127   -0.6489 O   0  0  0  0  0  0  0  0  0  0  0  0
   -0.9439    1.0140   -0.0137 O   0  0  0  0  0  0  0  0  0  0  0  0
  -11.2003   -2.0252    0.1492 C   0  0  0  0  0  0  0  0  0  0  0  0
   -0.3618    0.0721    0.8835 C   0  0  0  0  0  0  0  0  0  0  0  0
  -12.0558   -3.0884   -0.5535 C   0  0  0  0  0  0  0  0  0  0  0  0
    1.1645    0.1210    0.7467 C   0  0  0  0  0  0  0  0  0  0  0  0
  -13.3723   -3.3355    0.1894 C   0  0  0  0  0  0  0  0  0  0  0  0
  -11.3223   -4.3182   -0.6237 O   0  0  0  0  0  0  0  0  0  0  0  0
    1.6177   -0.3054   -0.6583 C   0  0  0  0  0  0  0  0  0  0  0  0
    1.7566   -0.7540    1.7176 O   0  0  0  0  0  0  0  0  0  0  0  0
  -14.1356   -2.1308    0.3610 O   0  0  0  0  0  0  0  0  0  0  0  0
    3.0441   -0.1524   -0.8130 O   0  0  0  0  0  0  0  0  0  0  0  0
  -14.8857   -1.7505   -0.7141 C   0  0  0  0  0  0  0  0  0  0  0  0
    3.4754    1.1149   -1.0506 C   0  0  0  0  0  0  0  0  0  0  0  0
  -15.6624   -0.4819   -0.3926 C   0  0  0  0  0  0  0  0  0  0  0  0
  -14.9117   -2.3349   -1.7885 O   0  0  0  0  0  0  0  0  0  0  0  0
    4.9751    1.1579   -1.1507 C   0  0  0  0  0  0  0  0  0  0  0  0
    2.7539    2.0990   -1.1467 O   0  0  0  0  0  0  0  0  0  0  0  0
  -17.1626   -0.5785   -0.4593 C   0  0  0  0  0  0  0  0  0  0  0  0
    5.5398    1.8125    0.1053 C   0  0  0  0  0  0  0  0  0  0  0  0
   -6.8870    3.6620   -0.5078 C   0  0  0  0  0  0  0  0  0  0  0  0
    7.0007    1.8958    0.0977 N   0  0  0  0  0  0  0  0  0  0  0  0
    7.5010    3.0434   -0.6559 C   0  0  0  0  0  0  0  0  0  0  0  0
    8.9903    2.8928   -0.9928 C   0  0  0  0  0  0  0  0  0  0  0  0
    9.2771    1.8200   -2.0518 C   0  0  0  0  0  0  0  0  0  0  0  0
    8.9869    0.4366   -1.6445 N   0  0  0  0  0  0  0  0  0  0  0  0
   10.0863   -0.1654   -0.8647 C   0  0  0  0  0  0  0  0  0  0  0  0
    9.7512   -0.2483    0.6240 C   0  0  0  0  0  0  0  0  0  0  0  0
   10.9044   -0.7486    1.5040 C   0  0  0  0  0  0  0  0  0  0  0  0
   11.2847   -2.2232    1.3242 C   0  0  0  0  0  0  0  0  0  0  0  0
   11.9182   -2.5653    0.0509 N   0  0  0  0  0  0  0  0  0  0  0  0
   13.2640   -2.0166   -0.1372 C   0  0  0  0  0  0  0  0  0  0  0  0
   14.3300   -2.6837    0.7385 C   0  0  0  0  0  0  0  0  0  0  0  0
   15.7217   -2.1541    0.3901 C   0  0  0  0  0  0  0  0  0  0  0  0
   16.7321   -2.7816    1.2348 N   0  0  0  0  0  0  0  0  0  0  0  0
  -17.9040   -1.6709   -0.6908 C   0  0  0  0  0  0  0  0  0  0  0  0
   -5.8351    3.9817    2.0279 H   0  0  0  0  0  0  0  0  0  0  0  0
   -7.5563    3.6013    2.0772 H   0  0  0  0  0  0  0  0  0  0  0  0
   -6.3726    2.4368    2.6898 H   0  0  0  0  0  0  0  0  0  0  0  0
   -8.5400    1.5322    2.1116 H   0  0  0  0  0  0  0  0  0  0  0  0
   -6.5958    0.8585   -1.6928 H   0  0  0  0  0  0  0  0  0  0  0  0
   -4.3645    3.6601   -1.0784 H   0  0  0  0  0  0  0  0  0  0  0  0
   -5.1762    0.4178    1.6701 H   0  0  0  0  0  0  0  0  0  0  0  0
  -10.0419   -0.2943    1.6721 H   0  0  0  0  0  0  0  0  0  0  0  0
   -8.1460   -0.9893   -2.1317 H   0  0  0  0  0  0  0  0  0  0  0  0
   -2.0452    2.9339   -1.2182 H   0  0  0  0  0  0  0  0  0  0  0  0
   -2.8635   -0.2975    1.5051 H   0  0  0  0  0  0  0  0  0  0  0  0
  -11.7664   -1.0911    0.2418 H   0  0  0  0  0  0  0  0  0  0  0  0
  -10.8959   -2.3929    1.1364 H   0  0  0  0  0  0  0  0  0  0  0  0
   -0.6231    0.3063    1.9242 H   0  0  0  0  0  0  0  0  0  0  0  0
   -0.7236   -0.9383    0.6569 H   0  0  0  0  0  0  0  0  0  0  0  0
  -12.2502   -2.7695   -1.5835 H   0  0  0  0  0  0  0  0  0  0  0  0
    1.5265    1.1331    0.9580 H   0  0  0  0  0  0  0  0  0  0  0  0
  -13.1662   -3.7295    1.1918 H   0  0  0  0  0  0  0  0  0  0  0  0
  -13.9707   -4.1089   -0.3090 H   0  0  0  0  0  0  0  0  0  0  0  0
  -10.4631   -4.0909   -1.0287 H   0  0  0  0  0  0  0  0  0  0  0  0
    1.4097   -1.3700   -0.8101 H   0  0  0  0  0  0  0  0  0  0  0  0
    1.1002    0.2474   -1.4506 H   0  0  0  0  0  0  0  0  0  0  0  0
    1.6916   -0.3122    2.5820 H   0  0  0  0  0  0  0  0  0  0  0  0
  -15.3853   -0.1348    0.6112 H   0  0  0  0  0  0  0  0  0  0  0  0
  -15.3149    0.2881   -1.0928 H   0  0  0  0  0  0  0  0  0  0  0  0
    5.3688    0.1409   -1.2753 H   0  0  0  0  0  0  0  0  0  0  0  0
    5.2316    1.7105   -2.0610 H   0  0  0  0  0  0  0  0  0  0  0  0
  -17.6879    0.3612   -0.2940 H   0  0  0  0  0  0  0  0  0  0  0  0
    5.0960    2.8027    0.2729 H   0  0  0  0  0  0  0  0  0  0  0  0
    5.2492    1.2093    0.9741 H   0  0  0  0  0  0  0  0  0  0  0  0
   -7.9483    3.9120   -0.3838 H   0  0  0  0  0  0  0  0  0  0  0  0
   -6.7456    3.3660   -1.5544 H   0  0  0  0  0  0  0  0  0  0  0  0
   -6.3207    4.5870   -0.3466 H   0  0  0  0  0  0  0  0  0  0  0  0
    7.4080    1.0433   -0.3110 H   0  0  0  0  0  0  0  0  0  0  0  0
    6.9473    3.1858   -1.5910 H   0  0  0  0  0  0  0  0  0  0  0  0
    7.3636    3.9488   -0.0541 H   0  0  0  0  0  0  0  0  0  0  0  0
    9.3374    3.8544   -1.3919 H   0  0  0  0  0  0  0  0  0  0  0  0
    9.5782    2.7171   -0.0857 H   0  0  0  0  0  0  0  0  0  0  0  0
   10.3115    1.9128   -2.4054 H   0  0  0  0  0  0  0  0  0  0  0  0
    8.6485    2.0381   -2.9247 H   0  0  0  0  0  0  0  0  0  0  0  0
    8.9015   -0.1151   -2.5017 H   0  0  0  0  0  0  0  0  0  0  0  0
   10.2169   -1.1799   -1.2542 H   0  0  0  0  0  0  0  0  0  0  0  0
   11.0389    0.3521   -1.0258 H   0  0  0  0  0  0  0  0  0  0  0  0
    9.4789    0.7454    0.9943 H   0  0  0  0  0  0  0  0  0  0  0  0
    8.8724   -0.8887    0.7706 H   0  0  0  0  0  0  0  0  0  0  0  0
   11.7762   -0.0975    1.3796 H   0  0  0  0  0  0  0  0  0  0  0  0
   10.5908   -0.6233    2.5487 H   0  0  0  0  0  0  0  0  0  0  0  0
   11.9201   -2.5375    2.1597 H   0  0  0  0  0  0  0  0  0  0  0  0
   10.3689   -2.8221    1.4092 H   0  0  0  0  0  0  0  0  0  0  0  0
   11.9626   -3.5822   -0.0267 H   0  0  0  0  0  0  0  0  0  0  0  0
   13.2745   -0.9300    0.0042 H   0  0  0  0  0  0  0  0  0  0  0  0
   13.5279   -2.1807   -1.1896 H   0  0  0  0  0  0  0  0  0  0  0  0
   14.1268   -2.4922    1.7997 H   0  0  0  0  0  0  0  0  0  0  0  0
   14.3015   -3.7722    0.5914 H   0  0  0  0  0  0  0  0  0  0  0  0
   15.7604   -1.0684    0.5348 H   0  0  0  0  0  0  0  0  0  0  0  0
   15.9534   -2.3580   -0.6617 H   0  0  0  0  0  0  0  0  0  0  0  0
   17.6568   -2.4548    0.9579 H   0  0  0  0  0  0  0  0  0  0  0  0
   16.7293   -3.7903    1.0884 H   0  0  0  0  0  0  0  0  0  0  0  0
  -17.4702   -2.6498   -0.8734 H   0  0  0  0  0  0  0  0  0  0  0  0
  -18.9888   -1.6056   -0.7127 H   0  0  0  0  0  0  0  0  0  0  0  0
  1  2  1  0
  1  3  1  0
  1  4  1  0
  3  5  2  0
  3  6  1  0
  4  7  2  0
  4  8  1  0
  5  9  1  0
  6 10  2  0
  7 11  1  0
  8 12  2  0
  9 13  2  0
 10 13  1  0
 11 14  2  0
 12 14  1  0
 13 15  1  0
 14 16  1  0
 15 17  1  0
 16 18  1  0
 17 19  1  0
 18 20  1  0
 19 21  1  0
 19 22  1  0
 20 23  1  0
 20 24  1  0
 21 25  1  0
 23 26  1  0
 25 27  1  0
 26 28  1  0
 27 29  1  0
 27 30  2  0
 28 31  1  0
 28 32  2  0
 29 33  1  0
 31 34  1  0
  1 35  1  0
 34 36  1  0
 37 38  1  0
 38 39  1  0
 39 40  1  0
 40 41  1  0
 41 42  1  0
 42 43  1  0
 43 44  1  0
 44 45  1  0
 45 46  1  0
 46 47  1  0
 47 48  1  0
 48 49  1  0
 37 36  1  0
 33 50  2  0
  2 51  1  0
  2 52  1  0
  2 53  1  0
  5 54  1  0
  6 55  1  0
  7 56  1  0
  8 57  1  0
  9 58  1  0
 10 59  1  0
 11 60  1  0
 12 61  1  0
 17 62  1  0
 17 63  1  0
 18 64  1  0
 18 65  1  0
 19 66  1  0
 20 67  1  0
 21 68  1  0
 21 69  1  0
 22 70  1  0
 23 71  1  0
 23 72  1  0
 24 73  1  0
 29 74  1  0
 29 75  1  0
 31 76  1  0
 31 77  1  0
 33 78  1  0
 34 79  1  0
 34 80  1  0
 35 81  1  0
 35 82  1  0
 35 83  1  0
 36 84  1  0
 37 85  1  0
 37 86  1  0
 38 87  1  0
 38 88  1  0
 39 89  1  0
 39 90  1  0
 40 91  1  0
 41 92  1  0
 41 93  1  0
 42 94  1  0
 42 95  1  0
 43 96  1  0
 43 97  1  0
 44 98  1  0
 44 99  1  0
 45100  1  0
 46101  1  0
 46102  1  0
 47103  1  0
 47104  1  0
 48105  1  0
 48106  1  0
 49107  1  0
 49108  1  0
 50109  1  0
 50110  1  0
M  END
