Rui22E32.mol
     RDKit          3D

 28 27  0  0  0  0  0  0  0  0999 V2000
   -0.4516   -2.1675    0.2086 C   0  0  0  0  0  0  0  0  0  0  0  0
   -0.2166   -1.1515   -0.9321 C   0  0  0  0  0  0  0  0  0  0  0  0
   -0.0706    0.2678   -0.5469 N   0  0  0  0  0  0  0  0  0  0  0  0
    1.0708    0.5237    0.3561 C   0  0  0  0  0  0  0  0  0  0  0  0
    2.4454    0.0878   -0.2000 C   0  0  0  0  0  0  0  0  0  0  0  0
    3.5356    0.4653    0.7046 N   0  0  0  0  0  0  0  0  0  0  0  0
   -0.5901   -3.5311   -0.3071 N   0  0  0  0  0  0  0  0  0  0  0  0
   -1.3336    0.7999    0.0069 C   0  0  0  0  0  0  0  0  0  0  0  0
   -1.4091    2.3424    0.0080 C   0  0  0  0  0  0  0  0  0  0  0  0
   -2.7398    2.8142    0.4050 N   0  0  0  0  0  0  0  0  0  0  0  0
    0.3885   -2.1550    0.9097 H   0  0  0  0  0  0  0  0  0  0  0  0
   -1.3581   -1.9134    0.7673 H   0  0  0  0  0  0  0  0  0  0  0  0
   -1.0462   -1.2276   -1.6488 H   0  0  0  0  0  0  0  0  0  0  0  0
    0.6624   -1.4565   -1.5132 H   0  0  0  0  0  0  0  0  0  0  0  0
    0.9041    0.0524    1.3331 H   0  0  0  0  0  0  0  0  0  0  0  0
    1.1411    1.6019    0.5408 H   0  0  0  0  0  0  0  0  0  0  0  0
    2.6164    0.5611   -1.1731 H   0  0  0  0  0  0  0  0  0  0  0  0
    2.4844   -0.9967   -0.3413 H   0  0  0  0  0  0  0  0  0  0  0  0
    3.4362   -0.0404    1.5840 H   0  0  0  0  0  0  0  0  0  0  0  0
    4.4198    0.1582    0.3003 H   0  0  0  0  0  0  0  0  0  0  0  0
   -1.3972   -3.5793   -0.9287 H   0  0  0  0  0  0  0  0  0  0  0  0
   -0.7927   -4.1623    0.4677 H   0  0  0  0  0  0  0  0  0  0  0  0
   -1.5059    0.4225    1.0231 H   0  0  0  0  0  0  0  0  0  0  0  0
   -2.1680    0.4393   -0.6099 H   0  0  0  0  0  0  0  0  0  0  0  0
   -1.1784    2.7304   -0.9906 H   0  0  0  0  0  0  0  0  0  0  0  0
   -0.6814    2.7640    0.7076 H   0  0  0  0  0  0  0  0  0  0  0  0
   -3.4206    2.5168   -0.2935 H   0  0  0  0  0  0  0  0  0  0  0  0
   -2.7447    3.8338    0.3814 H   0  0  0  0  0  0  0  0  0  0  0  0
  1  2  1  0
  2  3  1  0
  3  4  1  0
  4  5  1  0
  5  6  1  0
  1  7  1  0
  3  8  1  0
  8  9  1  0
  9 10  1  0
  1 11  1  0
  1 12  1  0
  2 13  1  0
  2 14  1  0
  4 15  1  0
  4 16  1  0
  5 17  1  0
  5 18  1  0
  6 19  1  0
  6 20  1  0
  7 21  1  0
  7 22  1  0
  8 23  1  0
  8 24  1  0
  9 25  1  0
  9 26  1  0
 10 27  1  0
 10 28  1  0
M  END
