Rui22B7Sc12.mol
     RDKit          3D

109110  0  0  0  0  0  0  0  0999 V2000
   -4.1181   -1.5640   -0.2030 N   0  0  0  0  0  0  0  0  0  0  0  0
    6.4258   -2.3105   -1.9601 C   0  0  0  0  0  0  0  0  0  0  0  0
    5.9218   -3.6790   -1.4345 C   0  0  0  0  0  0  0  0  0  0  0  0
    7.6797   -1.7891   -1.2157 C   0  0  0  0  0  0  0  0  0  0  0  0
    5.2315   -1.3359   -1.8138 C   0  0  0  0  0  0  0  0  0  0  0  0
    8.3459   -2.5311   -0.2293 C   0  0  0  0  0  0  0  0  0  0  0  0
    8.1947   -0.5140   -1.5244 C   0  0  0  0  0  0  0  0  0  0  0  0
    4.9149   -0.7932   -0.5528 C   0  0  0  0  0  0  0  0  0  0  0  0
    4.3965   -0.9939   -2.8861 C   0  0  0  0  0  0  0  0  0  0  0  0
    9.4717   -2.0133    0.4207 C   0  0  0  0  0  0  0  0  0  0  0  0
    9.3217    0.0025   -0.8692 C   0  0  0  0  0  0  0  0  0  0  0  0
    3.8199    0.0630   -0.3705 C   0  0  0  0  0  0  0  0  0  0  0  0
    3.2985   -0.1453   -2.7007 C   0  0  0  0  0  0  0  0  0  0  0  0
    9.9693   -0.7496    0.1049 C   0  0  0  0  0  0  0  0  0  0  0  0
    2.9977    0.3825   -1.4447 C   0  0  0  0  0  0  0  0  0  0  0  0
   11.0646   -0.3779    0.8299 O   0  0  0  0  0  0  0  0  0  0  0  0
    1.8816    1.1646   -1.4239 O   0  0  0  0  0  0  0  0  0  0  0  0
   11.7422    0.8377    0.4856 C   0  0  0  0  0  0  0  0  0  0  0  0
    1.3753    1.6727   -0.1929 C   0  0  0  0  0  0  0  0  0  0  0  0
   11.1548    2.0092    1.2848 C   0  0  0  0  0  0  0  0  0  0  0  0
    0.2075    0.8306    0.3321 C   0  0  0  0  0  0  0  0  0  0  0  0
   11.8446    3.3345    0.9480 C   0  0  0  0  0  0  0  0  0  0  0  0
   11.2918    1.7389    2.6899 O   0  0  0  0  0  0  0  0  0  0  0  0
    0.6470   -0.5379    0.8683 C   0  0  0  0  0  0  0  0  0  0  0  0
   -0.4338    1.5529    1.3991 O   0  0  0  0  0  0  0  0  0  0  0  0
   13.2671    3.1968    1.0938 O   0  0  0  0  0  0  0  0  0  0  0  0
   -0.5099   -1.2450    1.3695 O   0  0  0  0  0  0  0  0  0  0  0  0
   13.9731    4.3067    0.7772 C   0  0  0  0  0  0  0  0  0  0  0  0
   -1.1556   -2.0280    0.4566 C   0  0  0  0  0  0  0  0  0  0  0  0
   15.4233    4.1065    0.9879 C   0  0  0  0  0  0  0  0  0  0  0  0
   13.5146    5.3564    0.3516 O   0  0  0  0  0  0  0  0  0  0  0  0
   -2.3325   -2.7084    1.1093 C   0  0  0  0  0  0  0  0  0  0  0  0
   -0.8000   -2.1885   -0.7045 O   0  0  0  0  0  0  0  0  0  0  0  0
   15.9853    2.9966    1.4866 C   0  0  0  0  0  0  0  0  0  0  0  0
   -3.5030   -2.8507    0.1403 C   0  0  0  0  0  0  0  0  0  0  0  0
    6.8575   -2.5432   -3.4325 C   0  0  0  0  0  0  0  0  0  0  0  0
   -5.0721   -1.0626    0.7881 C   0  0  0  0  0  0  0  0  0  0  0  0
   -6.4323   -1.7641    0.7082 C   0  0  0  0  0  0  0  0  0  0  0  0
   -7.4434   -1.1043    1.6504 C   0  0  0  0  0  0  0  0  0  0  0  0
   -8.7947   -1.8234    1.6969 C   0  0  0  0  0  0  0  0  0  0  0  0
   -9.5165   -1.9750    0.3542 C   0  0  0  0  0  0  0  0  0  0  0  0
   -9.7704   -0.6750   -0.4143 C   0  0  0  0  0  0  0  0  0  0  0  0
  -10.5908    0.3874    0.3261 C   0  0  0  0  0  0  0  0  0  0  0  0
  -12.0039   -0.0771    0.6879 C   0  0  0  0  0  0  0  0  0  0  0  0
  -12.8434    1.0061    1.3757 C   0  0  0  0  0  0  0  0  0  0  0  0
  -13.1127    2.2707    0.5517 C   0  0  0  0  0  0  0  0  0  0  0  0
  -13.8401    1.9938   -0.7676 C   0  0  0  0  0  0  0  0  0  0  0  0
  -14.2677    3.2696   -1.4970 C   0  0  0  0  0  0  0  0  0  0  0  0
  -13.1208    4.0732   -1.9052 N   0  0  0  0  0  0  0  0  0  0  0  0
   -4.5897   -1.6518   -1.1054 H   0  0  0  0  0  0  0  0  0  0  0  0
    5.6567   -3.6389   -0.3714 H   0  0  0  0  0  0  0  0  0  0  0  0
    6.6753   -4.4656   -1.5618 H   0  0  0  0  0  0  0  0  0  0  0  0
    5.0249   -4.0055   -1.9739 H   0  0  0  0  0  0  0  0  0  0  0  0
    8.0147   -3.5239    0.0616 H   0  0  0  0  0  0  0  0  0  0  0  0
    7.7042    0.1047   -2.2759 H   0  0  0  0  0  0  0  0  0  0  0  0
    5.5269   -1.0365    0.3154 H   0  0  0  0  0  0  0  0  0  0  0  0
    4.5605   -1.3840   -3.8865 H   0  0  0  0  0  0  0  0  0  0  0  0
    9.9665   -2.6077    1.1853 H   0  0  0  0  0  0  0  0  0  0  0  0
    9.6514    0.9969   -1.1486 H   0  0  0  0  0  0  0  0  0  0  0  0
    3.6453    0.4439    0.6291 H   0  0  0  0  0  0  0  0  0  0  0  0
    2.6598    0.0938   -3.5485 H   0  0  0  0  0  0  0  0  0  0  0  0
   11.7541    1.0198   -0.5956 H   0  0  0  0  0  0  0  0  0  0  0  0
   12.7840    0.6751    0.7861 H   0  0  0  0  0  0  0  0  0  0  0  0
    2.1385    1.8463    0.5734 H   0  0  0  0  0  0  0  0  0  0  0  0
    0.9905    2.6767   -0.4171 H   0  0  0  0  0  0  0  0  0  0  0  0
   10.0803    2.1058    1.0978 H   0  0  0  0  0  0  0  0  0  0  0  0
   -0.5415    0.6965   -0.4585 H   0  0  0  0  0  0  0  0  0  0  0  0
   11.6139    3.6161   -0.0857 H   0  0  0  0  0  0  0  0  0  0  0  0
   11.4973    4.1157    1.6347 H   0  0  0  0  0  0  0  0  0  0  0  0
   10.9602    0.8303    2.8185 H   0  0  0  0  0  0  0  0  0  0  0  0
    1.3156   -0.4104    1.7281 H   0  0  0  0  0  0  0  0  0  0  0  0
    1.1746   -1.1390    0.1205 H   0  0  0  0  0  0  0  0  0  0  0  0
   -1.1097    0.9507    1.7642 H   0  0  0  0  0  0  0  0  0  0  0  0
   16.0343    4.9574    0.7104 H   0  0  0  0  0  0  0  0  0  0  0  0
   -2.6348   -2.1535    2.0044 H   0  0  0  0  0  0  0  0  0  0  0  0
   -1.9933   -3.6982    1.4361 H   0  0  0  0  0  0  0  0  0  0  0  0
   15.3954    2.1358    1.7885 H   0  0  0  0  0  0  0  0  0  0  0  0
   17.0612    2.9346    1.6167 H   0  0  0  0  0  0  0  0  0  0  0  0
   -3.1447   -3.3099   -0.7897 H   0  0  0  0  0  0  0  0  0  0  0  0
   -4.2425   -3.5467    0.5504 H   0  0  0  0  0  0  0  0  0  0  0  0
    7.0955   -1.6036   -3.9459 H   0  0  0  0  0  0  0  0  0  0  0  0
    7.7488   -3.1822   -3.4854 H   0  0  0  0  0  0  0  0  0  0  0  0
    6.0726   -3.0452   -4.0114 H   0  0  0  0  0  0  0  0  0  0  0  0
   -4.6627   -1.1260    1.8028 H   0  0  0  0  0  0  0  0  0  0  0  0
   -5.2154    0.0061    0.5845 H   0  0  0  0  0  0  0  0  0  0  0  0
   -6.3318   -2.8246    0.9667 H   0  0  0  0  0  0  0  0  0  0  0  0
   -6.8008   -1.7132   -0.3225 H   0  0  0  0  0  0  0  0  0  0  0  0
   -7.0300   -1.0881    2.6669 H   0  0  0  0  0  0  0  0  0  0  0  0
   -7.5891   -0.0572    1.3617 H   0  0  0  0  0  0  0  0  0  0  0  0
   -9.4460   -1.2956    2.4038 H   0  0  0  0  0  0  0  0  0  0  0  0
   -8.6444   -2.8245    2.1208 H   0  0  0  0  0  0  0  0  0  0  0  0
  -10.4684   -2.4898    0.5287 H   0  0  0  0  0  0  0  0  0  0  0  0
   -8.9376   -2.6476   -0.2899 H   0  0  0  0  0  0  0  0  0  0  0  0
   -8.8116   -0.2307   -0.7083 H   0  0  0  0  0  0  0  0  0  0  0  0
  -10.2836   -0.9269   -1.3513 H   0  0  0  0  0  0  0  0  0  0  0  0
  -10.6498    1.2633   -0.3293 H   0  0  0  0  0  0  0  0  0  0  0  0
  -10.0621    0.7100    1.2299 H   0  0  0  0  0  0  0  0  0  0  0  0
  -11.9412   -0.9298    1.3739 H   0  0  0  0  0  0  0  0  0  0  0  0
  -12.5190   -0.4413   -0.2083 H   0  0  0  0  0  0  0  0  0  0  0  0
  -13.8051    0.5640    1.6624 H   0  0  0  0  0  0  0  0  0  0  0  0
  -12.3486    1.2976    2.3109 H   0  0  0  0  0  0  0  0  0  0  0  0
  -13.7230    2.9468    1.1625 H   0  0  0  0  0  0  0  0  0  0  0  0
  -12.1707    2.7964    0.3630 H   0  0  0  0  0  0  0  0  0  0  0  0
  -14.7360    1.3945   -0.5647 H   0  0  0  0  0  0  0  0  0  0  0  0
  -13.2017    1.3964   -1.4301 H   0  0  0  0  0  0  0  0  0  0  0  0
  -14.9196    3.8705   -0.8517 H   0  0  0  0  0  0  0  0  0  0  0  0
  -14.8467    2.9957   -2.3867 H   0  0  0  0  0  0  0  0  0  0  0  0
  -13.4451    4.8613   -2.4640 H   0  0  0  0  0  0  0  0  0  0  0  0
  -12.5148    3.5222   -2.5119 H   0  0  0  0  0  0  0  0  0  0  0  0
  2  3  1  0
  2  4  1  0
  2  5  1  0
  4  6  2  0
  4  7  1  0
  5  8  2  0
  5  9  1  0
  6 10  1  0
  7 11  2  0
  8 12  1  0
  9 13  2  0
 10 14  2  0
 11 14  1  0
 12 15  2  0
 13 15  1  0
 14 16  1  0
 15 17  1  0
 16 18  1  0
 17 19  1  0
 18 20  1  0
 19 21  1  0
 20 22  1  0
 20 23  1  0
 21 24  1  0
 21 25  1  0
 22 26  1  0
 24 27  1  0
 26 28  1  0
 27 29  1  0
 28 30  1  0
 28 31  2  0
 29 32  1  0
 29 33  2  0
 30 34  2  0
 32 35  1  0
  2 36  1  0
  1 35  1  0
  1 37  1  0
 37 38  1  0
 38 39  1  0
 39 40  1  0
 40 41  1  0
 41 42  1  0
 42 43  1  0
 43 44  1  0
 44 45  1  0
 45 46  1  0
 46 47  1  0
 47 48  1  0
 48 49  1  0
  1 50  1  0
  3 51  1  0
  3 52  1  0
  3 53  1  0
  6 54  1  0
  7 55  1  0
  8 56  1  0
  9 57  1  0
 10 58  1  0
 11 59  1  0
 12 60  1  0
 13 61  1  0
 18 62  1  0
 18 63  1  0
 19 64  1  0
 19 65  1  0
 20 66  1  0
 21 67  1  0
 22 68  1  0
 22 69  1  0
 23 70  1  0
 24 71  1  0
 24 72  1  0
 25 73  1  0
 30 74  1  0
 32 75  1  0
 32 76  1  0
 34 77  1  0
 34 78  1  0
 35 79  1  0
 35 80  1  0
 36 81  1  0
 36 82  1  0
 36 83  1  0
 37 84  1  0
 37 85  1  0
 38 86  1  0
 38 87  1  0
 39 88  1  0
 39 89  1  0
 40 90  1  0
 40 91  1  0
 41 92  1  0
 41 93  1  0
 42 94  1  0
 42 95  1  0
 43 96  1  0
 43 97  1  0
 44 98  1  0
 44 99  1  0
 45100  1  0
 45101  1  0
 46102  1  0
 46103  1  0
 47104  1  0
 47105  1  0
 48106  1  0
 48107  1  0
 49108  1  0
 49109  1  0
M  END
