Rui22E56.mol
     RDKit          3D

 38 37  0  0  0  0  0  0  0  0999 V2000
    3.1114   -0.4684    0.3277 C   0  0  0  0  0  0  0  0  0  0  0  0
    1.8963    0.4593    0.1832 C   0  0  0  0  0  0  0  0  0  0  0  0
    1.3394    0.3995   -1.2426 C   0  0  0  0  0  0  0  0  0  0  0  0
    0.2076    1.3171   -1.3989 N   0  0  0  0  0  0  0  0  0  0  0  0
    3.6065   -0.5775    1.7116 N   0  0  0  0  0  0  0  0  0  0  0  0
   -1.0902    0.6340   -1.5143 C   0  0  0  0  0  0  0  0  0  0  0  0
   -1.5418   -0.0465   -0.2194 C   0  0  0  0  0  0  0  0  0  0  0  0
   -2.9042   -0.7445   -0.3586 C   0  0  0  0  0  0  0  0  0  0  0  0
   -4.0122    0.1252   -0.7884 N   0  0  0  0  0  0  0  0  0  0  0  0
    4.6286   -1.6241    1.7967 C   0  0  0  0  0  0  0  0  0  0  0  0
    4.1542    0.6879    2.2046 C   0  0  0  0  0  0  0  0  0  0  0  0
   -5.2055   -0.6804   -1.0614 C   0  0  0  0  0  0  0  0  0  0  0  0
   -4.3254    1.1468    0.2139 C   0  0  0  0  0  0  0  0  0  0  0  0
    3.9133   -0.1366   -0.3451 H   0  0  0  0  0  0  0  0  0  0  0  0
    2.8052   -1.4670   -0.0112 H   0  0  0  0  0  0  0  0  0  0  0  0
    1.1265    0.1685    0.9070 H   0  0  0  0  0  0  0  0  0  0  0  0
    2.1800    1.4939    0.4094 H   0  0  0  0  0  0  0  0  0  0  0  0
    2.1294    0.7143   -1.9360 H   0  0  0  0  0  0  0  0  0  0  0  0
    1.0813   -0.6286   -1.5240 H   0  0  0  0  0  0  0  0  0  0  0  0
    0.3430    1.8581   -2.2538 H   0  0  0  0  0  0  0  0  0  0  0  0
   -1.8257    1.3977   -1.7916 H   0  0  0  0  0  0  0  0  0  0  0  0
   -1.0643   -0.0868   -2.3408 H   0  0  0  0  0  0  0  0  0  0  0  0
   -0.8152   -0.8149    0.0699 H   0  0  0  0  0  0  0  0  0  0  0  0
   -1.5660    0.6807    0.6005 H   0  0  0  0  0  0  0  0  0  0  0  0
   -3.1488   -1.2335    0.5938 H   0  0  0  0  0  0  0  0  0  0  0  0
   -2.7788   -1.5479   -1.0969 H   0  0  0  0  0  0  0  0  0  0  0  0
    5.5008   -1.4018    1.1712 H   0  0  0  0  0  0  0  0  0  0  0  0
    4.9679   -1.7490    2.8312 H   0  0  0  0  0  0  0  0  0  0  0  0
    4.2178   -2.5913    1.4862 H   0  0  0  0  0  0  0  0  0  0  0  0
    4.5529    0.5653    3.2184 H   0  0  0  0  0  0  0  0  0  0  0  0
    4.9591    1.0669    1.5647 H   0  0  0  0  0  0  0  0  0  0  0  0
    3.3770    1.4546    2.2805 H   0  0  0  0  0  0  0  0  0  0  0  0
   -6.0221   -0.0479   -1.4275 H   0  0  0  0  0  0  0  0  0  0  0  0
   -5.5554   -1.2163   -0.1716 H   0  0  0  0  0  0  0  0  0  0  0  0
   -5.0035   -1.4140   -1.8499 H   0  0  0  0  0  0  0  0  0  0  0  0
   -5.1716    1.7608   -0.1157 H   0  0  0  0  0  0  0  0  0  0  0  0
   -3.4883    1.8382    0.3509 H   0  0  0  0  0  0  0  0  0  0  0  0
   -4.5791    0.7082    1.1857 H   0  0  0  0  0  0  0  0  0  0  0  0
  1  2  1  0
  2  3  1  0
  3  4  1  0
  1  5  1  0
  4  6  1  0
  6  7  1  0
  7  8  1  0
  8  9  1  0
  5 10  1  0
  5 11  1  0
  9 12  1  0
  9 13  1  0
  1 14  1  0
  1 15  1  0
  2 16  1  0
  2 17  1  0
  3 18  1  0
  3 19  1  0
  4 20  1  0
  6 21  1  0
  6 22  1  0
  7 23  1  0
  7 24  1  0
  8 25  1  0
  8 26  1  0
 10 27  1  0
 10 28  1  0
 10 29  1  0
 11 30  1  0
 11 31  1  0
 11 32  1  0
 12 33  1  0
 12 34  1  0
 12 35  1  0
 13 36  1  0
 13 37  1  0
 13 38  1  0
M  END
