Tzeng13E5.mol
     RDKit          3D

 33 32  0  0  0  0  0  0  0  0999 V2000
   -5.8847    0.7783   -0.1323 N   0  0  0  0  0  0  0  0  0  0  0  0
   -5.3088   -0.0912    0.8960 C   0  0  0  0  0  0  0  0  0  0  0  0
   -4.3010   -1.0800    0.2899 C   0  0  0  0  0  0  0  0  0  0  0  0
   -3.2097   -0.4024   -0.3467 O   0  0  0  0  0  0  0  0  0  0  0  0
   -2.1893   -0.0031    0.5670 C   0  0  0  0  0  0  0  0  0  0  0  0
   -1.0791    0.7101   -0.2039 C   0  0  0  0  0  0  0  0  0  0  0  0
   -0.0408    1.1545    0.6695 O   0  0  0  0  0  0  0  0  0  0  0  0
    0.9596    0.1672    0.9208 C   0  0  0  0  0  0  0  0  0  0  0  0
    2.0465    0.1831   -0.1537 C   0  0  0  0  0  0  0  0  0  0  0  0
    3.0286   -0.8034    0.1629 O   0  0  0  0  0  0  0  0  0  0  0  0
    4.0774   -0.8775   -0.8067 C   0  0  0  0  0  0  0  0  0  0  0  0
    5.1352    0.2115   -0.5818 C   0  0  0  0  0  0  0  0  0  0  0  0
    6.2834    0.0584   -1.4739 N   0  0  0  0  0  0  0  0  0  0  0  0
   -6.3105    1.5924    0.3065 H   0  0  0  0  0  0  0  0  0  0  0  0
   -5.1217    1.1259   -0.7177 H   0  0  0  0  0  0  0  0  0  0  0  0
   -4.8172    0.5367    1.6452 H   0  0  0  0  0  0  0  0  0  0  0  0
   -6.1146   -0.6407    1.3924 H   0  0  0  0  0  0  0  0  0  0  0  0
   -3.9273   -1.7722    1.0533 H   0  0  0  0  0  0  0  0  0  0  0  0
   -4.7969   -1.6827   -0.4794 H   0  0  0  0  0  0  0  0  0  0  0  0
   -2.5931    0.6716    1.3294 H   0  0  0  0  0  0  0  0  0  0  0  0
   -1.7897   -0.8842    1.0808 H   0  0  0  0  0  0  0  0  0  0  0  0
   -0.6886    0.0786   -1.0103 H   0  0  0  0  0  0  0  0  0  0  0  0
   -1.5004    1.5976   -0.6898 H   0  0  0  0  0  0  0  0  0  0  0  0
    0.5233   -0.8328    1.0272 H   0  0  0  0  0  0  0  0  0  0  0  0
    1.4164    0.4035    1.8887 H   0  0  0  0  0  0  0  0  0  0  0  0
    1.6125   -0.0294   -1.1368 H   0  0  0  0  0  0  0  0  0  0  0  0
    2.4989    1.1795   -0.1974 H   0  0  0  0  0  0  0  0  0  0  0  0
    3.6664   -0.8380   -1.8228 H   0  0  0  0  0  0  0  0  0  0  0  0
    4.5423   -1.8624   -0.6840 H   0  0  0  0  0  0  0  0  0  0  0  0
    4.6949    1.2009   -0.7410 H   0  0  0  0  0  0  0  0  0  0  0  0
    5.4713    0.1873    0.4612 H   0  0  0  0  0  0  0  0  0  0  0  0
    6.7521   -0.8255   -1.2750 H   0  0  0  0  0  0  0  0  0  0  0  0
    6.9649    0.7884   -1.2671 H   0  0  0  0  0  0  0  0  0  0  0  0
  1  2  1  0
  2  3  1  0
  3  4  1  0
  4  5  1  0
  5  6  1  0
  6  7  1  0
  7  8  1  0
  8  9  1  0
  9 10  1  0
 10 11  1  0
 11 12  1  0
 12 13  1  0
  1 14  1  0
  1 15  1  0
  2 16  1  0
  2 17  1  0
  3 18  1  0
  3 19  1  0
  5 20  1  0
  5 21  1  0
  6 22  1  0
  6 23  1  0
  8 24  1  0
  8 25  1  0
  9 26  1  0
  9 27  1  0
 11 28  1  0
 11 29  1  0
 12 30  1  0
 12 31  1  0
 13 32  1  0
 13 33  1  0
M  END
