Yan17si_C6-SH.mol
     RDKit          3D

 73 72  0  1  0  0  0  0  0  0999 V2000
   -2.8951    0.2984    1.8044 O   0  0  0  0  0  0  0  0  0  0  0  0
   -1.4874    0.3497    1.5980 C   0  0  0  0  0  0  0  0  0  0  0  0
   -0.9819   -0.6297    0.5139 C   0  0  0  0  0  0  0  0  0  0  0  0
   -1.5315   -2.0744    0.7313 C   0  0  0  0  0  0  0  0  0  0  0  0
   -1.2096   -2.7001    2.0845 C   0  0  0  0  0  0  0  0  0  0  0  0
    0.5691   -0.6163    0.5610 C   0  0  0  0  0  0  0  0  0  0  0  0
    1.0899   -1.5199   -0.4141 O   0  0  0  0  0  0  0  0  0  0  0  0
    2.2134   -2.2811    0.0247 C   0  0  0  0  0  0  0  0  0  0  0  0
    3.4837   -1.4368    0.1323 C   0  0  0  0  0  0  0  0  0  0  0  0
    4.6452   -2.3074    0.6123 C   0  0  0  0  0  0  0  0  0  0  0  0
    6.2032   -1.3742    0.8014 S   0  0  0  0  0  0  0  0  0  0  0  0
   -1.4223   -0.1327   -0.8938 C   0  0  0  0  0  0  0  0  0  0  0  0
   -2.8445   -0.2406   -1.0880 O   0  0  0  0  0  0  0  0  0  0  0  0
   -3.5587    0.9193   -1.1261 C   0  0  0  0  0  0  0  0  0  0  0  0
   -5.0250    0.6216   -1.3393 C   0  0  0  0  0  0  0  0  0  0  0  0
   -3.0963    2.0476   -1.0241 O   0  0  0  0  0  0  0  0  0  0  0  0
  -10.5430    2.4575   -1.1122 C   0  0  0  0  0  0  0  0  0  0  0  0
  -11.6234    2.7880   -1.5943 O   0  0  0  0  0  0  0  0  0  0  0  0
    6.5541   -0.9917   -0.9478 C   0  0  0  0  0  0  0  0  0  0  0  0
    8.0492   -0.7931   -1.2033 C   0  0  0  0  0  0  0  0  0  0  0  0
    8.6765    0.4556   -0.5674 C   0  0  0  0  0  0  0  0  0  0  0  0
    8.2259    1.7562   -1.2429 C   0  0  0  0  0  0  0  0  0  0  0  0
    8.8228    3.0155   -0.6055 C   0  0  0  0  0  0  0  0  0  0  0  0
   10.3431    3.0752   -0.6708 C   0  0  0  0  0  0  0  0  0  0  0  0
   -5.6164   -0.1516   -0.1624 C   0  0  0  0  0  0  0  0  0  0  0  0
   -7.1034   -0.4764   -0.3288 C   0  0  0  0  0  0  0  0  0  0  0  0
   -8.0061    0.7545   -0.1920 C   0  0  0  0  0  0  0  0  0  0  0  0
   -9.4869    0.3551   -0.2105 C   0  0  0  0  0  0  0  0  0  0  0  0
  -10.4204    1.5304    0.0689 C   0  0  0  0  0  0  0  0  0  0  0  0
   -3.1164   -0.5748    2.1714 H   0  0  0  0  0  0  0  0  0  0  0  0
   -1.0070    0.1520    2.5617 H   0  0  0  0  0  0  0  0  0  0  0  0
   -1.2351    1.3803    1.3270 H   0  0  0  0  0  0  0  0  0  0  0  0
   -1.1433   -2.7388   -0.0512 H   0  0  0  0  0  0  0  0  0  0  0  0
   -2.6215   -2.0896    0.6105 H   0  0  0  0  0  0  0  0  0  0  0  0
   -1.6771   -2.1512    2.9071 H   0  0  0  0  0  0  0  0  0  0  0  0
   -0.1312   -2.7404    2.2681 H   0  0  0  0  0  0  0  0  0  0  0  0
   -1.5855   -3.7301    2.1127 H   0  0  0  0  0  0  0  0  0  0  0  0
    0.9534    0.3821    0.3249 H   0  0  0  0  0  0  0  0  0  0  0  0
    0.9210   -0.8728    1.5669 H   0  0  0  0  0  0  0  0  0  0  0  0
    1.9804   -2.7819    0.9728 H   0  0  0  0  0  0  0  0  0  0  0  0
    2.3696   -3.0675   -0.7258 H   0  0  0  0  0  0  0  0  0  0  0  0
    3.7004   -0.9981   -0.8525 H   0  0  0  0  0  0  0  0  0  0  0  0
    3.3216   -0.5979    0.8206 H   0  0  0  0  0  0  0  0  0  0  0  0
    4.4049   -2.7374    1.5921 H   0  0  0  0  0  0  0  0  0  0  0  0
    4.8221   -3.1451   -0.0712 H   0  0  0  0  0  0  0  0  0  0  0  0
   -0.9707   -0.7554   -1.6779 H   0  0  0  0  0  0  0  0  0  0  0  0
   -1.0611    0.8887   -1.0757 H   0  0  0  0  0  0  0  0  0  0  0  0
   -5.1301    0.0610   -2.2728 H   0  0  0  0  0  0  0  0  0  0  0  0
   -5.5389    1.5762   -1.4788 H   0  0  0  0  0  0  0  0  0  0  0  0
   -9.6027    2.8931   -1.4922 H   0  0  0  0  0  0  0  0  0  0  0  0
    5.9785   -0.1101   -1.2422 H   0  0  0  0  0  0  0  0  0  0  0  0
    6.2153   -1.8334   -1.5624 H   0  0  0  0  0  0  0  0  0  0  0  0
    8.2079   -0.7443   -2.2879 H   0  0  0  0  0  0  0  0  0  0  0  0
    8.5972   -1.6815   -0.8612 H   0  0  0  0  0  0  0  0  0  0  0  0
    8.4670    0.4962    0.5070 H   0  0  0  0  0  0  0  0  0  0  0  0
    9.7635    0.3591   -0.6711 H   0  0  0  0  0  0  0  0  0  0  0  0
    7.1334    1.8395   -1.1992 H   0  0  0  0  0  0  0  0  0  0  0  0
    8.5031    1.7257   -2.3053 H   0  0  0  0  0  0  0  0  0  0  0  0
    8.5035    3.0906    0.4401 H   0  0  0  0  0  0  0  0  0  0  0  0
    8.4154    3.8912   -1.1253 H   0  0  0  0  0  0  0  0  0  0  0  0
   10.7966    2.3247   -0.0128 H   0  0  0  0  0  0  0  0  0  0  0  0
   10.6932    4.0591   -0.3398 H   0  0  0  0  0  0  0  0  0  0  0  0
   10.7055    2.9105   -1.6909 H   0  0  0  0  0  0  0  0  0  0  0  0
   -5.0727   -1.0981   -0.0412 H   0  0  0  0  0  0  0  0  0  0  0  0
   -5.4631    0.4084    0.7667 H   0  0  0  0  0  0  0  0  0  0  0  0
   -7.3780   -1.2057    0.4460 H   0  0  0  0  0  0  0  0  0  0  0  0
   -7.2742   -0.9641   -1.2957 H   0  0  0  0  0  0  0  0  0  0  0  0
   -7.7775    1.2701    0.7498 H   0  0  0  0  0  0  0  0  0  0  0  0
   -7.8041    1.4573   -1.0088 H   0  0  0  0  0  0  0  0  0  0  0  0
   -9.7306   -0.1037   -1.1776 H   0  0  0  0  0  0  0  0  0  0  0  0
   -9.6559   -0.4086    0.5602 H   0  0  0  0  0  0  0  0  0  0  0  0
  -11.4235    1.1507    0.2969 H   0  0  0  0  0  0  0  0  0  0  0  0
  -10.0773    2.1153    0.9285 H   0  0  0  0  0  0  0  0  0  0  0  0
  1  2  1  0
  2  3  1  0
  3  4  1  0
  4  5  1  0
  3  6  1  0
  6  7  1  0
  7  8  1  0
  8  9  1  0
  9 10  1  0
 10 11  1  0
  3 12  1  0
 12 13  1  0
 13 14  1  0
 14 15  1  0
 14 16  2  0
 29 17  1  0
 17 18  2  0
 11 19  1  0
 19 20  1  0
 20 21  1  0
 21 22  1  0
 22 23  1  0
 23 24  1  0
 15 25  1  0
 25 26  1  0
 26 27  1  0
 27 28  1  0
 28 29  1  0
  1 30  1  0
  2 31  1  0
  2 32  1  0
  4 33  1  0
  4 34  1  0
  5 35  1  0
  5 36  1  0
  5 37  1  0
  6 38  1  0
  6 39  1  0
  8 40  1  0
  8 41  1  0
  9 42  1  0
  9 43  1  0
 10 44  1  0
 10 45  1  0
 12 46  1  0
 12 47  1  0
 15 48  1  0
 15 49  1  0
 17 50  1  0
 19 51  1  0
 19 52  1  0
 20 53  1  0
 20 54  1  0
 21 55  1  0
 21 56  1  0
 22 57  1  0
 22 58  1  0
 23 59  1  0
 23 60  1  0
 24 61  1  0
 24 62  1  0
 24 63  1  0
 25 64  1  0
 25 65  1  0
 26 66  1  0
 26 67  1  0
 27 68  1  0
 27 69  1  0
 28 70  1  0
 28 71  1  0
 29 72  1  0
 29 73  1  0
M  STY  1   1 MUL
M  SLB  1   1   1
M  SAL   1  6  15  25  26  27  28  29
M  SPA   1  1  15
M  SBL   1  2  14  16
M  SDI   1  4    1.4800    3.2997    1.4800    3.8772
M  SDI   1  4    2.0987    3.8772    2.0987    3.2997
M  SMT   1 6
M  END
