Yan17si_A19.mol
     RDKit          3D

 71 69  0  2  0  0  0  0  0  0999 V2000
   -2.5781   -5.4319    0.6109 O   0  0  0  0  0  0  0  0  0  0  0  0
   -1.4936   -4.6352    1.0700 C   0  0  0  0  0  0  0  0  0  0  0  0
   -0.5762   -4.2076   -0.1054 C   0  0  0  0  0  0  0  0  0  0  0  0
   -0.0156   -5.4992   -0.7778 C   0  0  0  0  0  0  0  0  0  0  0  0
    0.9825   -5.3163   -1.9136 C   0  0  0  0  0  0  0  0  0  0  0  0
    0.5547   -3.3404    0.5006 C   0  0  0  0  0  0  0  0  0  0  0  0
    1.3044   -2.6913   -0.5240 O   0  0  0  0  0  0  0  0  0  0  0  0
    2.4234   -1.9464   -0.0606 C   0  0  0  0  0  0  0  0  0  0  0  0
    2.0247   -0.6111    0.5700 C   0  0  0  0  0  0  0  0  0  0  0  0
    1.0216    0.2058   -0.2437 C   0  0  0  0  0  0  0  0  0  0  0  0
    1.6001    0.7426   -1.8903 S   0  0  0  0  0  0  0  0  0  0  0  0
   -1.3941   -3.3952   -1.1391 C   0  0  0  0  0  0  0  0  0  0  0  0
   -1.9985   -2.2475   -0.5102 O   0  0  0  0  0  0  0  0  0  0  0  0
   -2.7089   -1.4593   -1.3602 C   0  0  0  0  0  0  0  0  0  0  0  0
   -3.3862   -0.3015   -0.6587 C   0  0  0  0  0  0  0  0  0  0  0  0
   -2.8127   -1.6408   -2.5677 O   0  0  0  0  0  0  0  0  0  0  0  0
   -0.3556    3.7097    2.5500 C   0  0  0  0  0  0  0  0  0  0  0  0
    0.4014    3.8859    1.5963 O   0  0  0  0  0  0  0  0  0  0  0  0
    2.8945    1.9467   -1.4592 C   0  0  0  0  0  0  0  0  0  0  0  0
    2.3660    3.1159   -0.6224 C   0  0  0  0  0  0  0  0  0  0  0  0
    2.5561    5.5522   -0.1522 C   0  0  0  0  0  0  0  0  0  0  0  0
    4.6278    4.1893   -0.2405 C   0  0  0  0  0  0  0  0  0  0  0  0
    3.2346    4.3567   -0.7745 N   0  0  0  0  0  4  0  0  0  0  0  0
    0.0000    0.0000    0.0000 Cl  0  0  0  0  0 15  0  0  0  0  0  0
   -3.0639   -0.1462    0.8285 C   0  0  0  0  0  0  0  0  0  0  0  0
   -3.8694    0.9697    1.5034 C   0  0  0  0  0  0  0  0  0  0  0  0
   -3.6458    2.3801    0.9473 C   0  0  0  0  0  0  0  0  0  0  0  0
   -2.2080    2.9014    1.0311 C   0  0  0  0  0  0  0  0  0  0  0  0
   -1.7100    3.0463    2.4657 C   0  0  0  0  0  0  0  0  0  0  0  0
   -3.0960   -5.7051    1.3881 H   0  0  0  0  0  0  0  0  0  0  0  0
   -0.9292   -5.2228    1.8033 H   0  0  0  0  0  0  0  0  0  0  0  0
   -1.9104   -3.7652    1.5892 H   0  0  0  0  0  0  0  0  0  0  0  0
   -0.8511   -6.0935   -1.1694 H   0  0  0  0  0  0  0  0  0  0  0  0
    0.4628   -6.1216   -0.0103 H   0  0  0  0  0  0  0  0  0  0  0  0
    1.9133   -4.8620   -1.5658 H   0  0  0  0  0  0  0  0  0  0  0  0
    0.5735   -4.7120   -2.7260 H   0  0  0  0  0  0  0  0  0  0  0  0
    1.2437   -6.2935   -2.3326 H   0  0  0  0  0  0  0  0  0  0  0  0
    0.1274   -2.5764    1.1602 H   0  0  0  0  0  0  0  0  0  0  0  0
    1.2246   -3.9674    1.1021 H   0  0  0  0  0  0  0  0  0  0  0  0
    3.0662   -1.7640   -0.9287 H   0  0  0  0  0  0  0  0  0  0  0  0
    3.0134   -2.5452    0.6441 H   0  0  0  0  0  0  0  0  0  0  0  0
    1.5625   -0.8122    1.5445 H   0  0  0  0  0  0  0  0  0  0  0  0
    2.9255   -0.0243    0.7821 H   0  0  0  0  0  0  0  0  0  0  0  0
    0.1112   -0.3793   -0.4040 H   0  0  0  0  0  0  0  0  0  0  0  0
    0.7154    1.0877    0.3270 H   0  0  0  0  0  0  0  0  0  0  0  0
   -0.7539   -3.0464   -1.9577 H   0  0  0  0  0  0  0  0  0  0  0  0
   -2.1895   -4.0176   -1.5686 H   0  0  0  0  0  0  0  0  0  0  0  0
   -3.0869    0.6053   -1.1963 H   0  0  0  0  0  0  0  0  0  0  0  0
   -4.4668   -0.4430   -0.7803 H   0  0  0  0  0  0  0  0  0  0  0  0
   -0.0453    4.0047    3.5697 H   0  0  0  0  0  0  0  0  0  0  0  0
    3.2945    2.3159   -2.4098 H   0  0  0  0  0  0  0  0  0  0  0  0
    3.7128    1.4324   -0.9455 H   0  0  0  0  0  0  0  0  0  0  0  0
    2.3538    2.8609    0.4413 H   0  0  0  0  0  0  0  0  0  0  0  0
    1.3634    3.4079   -0.9525 H   0  0  0  0  0  0  0  0  0  0  0  0
    3.1518    6.4362   -0.3945 H   0  0  0  0  0  0  0  0  0  0  0  0
    2.5052    5.4028    0.9294 H   0  0  0  0  0  0  0  0  0  0  0  0
    1.5587    5.6502   -0.5892 H   0  0  0  0  0  0  0  0  0  0  0  0
    5.1683    5.1259   -0.4021 H   0  0  0  0  0  0  0  0  0  0  0  0
    4.5663    3.9533    0.8259 H   0  0  0  0  0  0  0  0  0  0  0  0
    5.1184    3.3840   -0.7929 H   0  0  0  0  0  0  0  0  0  0  0  0
    3.3028    4.5581   -1.7817 H   0  0  0  0  0  0  0  0  0  0  0  0
   -1.9902    0.0235    0.9682 H   0  0  0  0  0  0  0  0  0  0  0  0
   -3.2934   -1.0855    1.3487 H   0  0  0  0  0  0  0  0  0  0  0  0
   -4.9371    0.7327    1.4153 H   0  0  0  0  0  0  0  0  0  0  0  0
   -3.6491    0.9610    2.5768 H   0  0  0  0  0  0  0  0  0  0  0  0
   -4.3032    3.0709    1.4905 H   0  0  0  0  0  0  0  0  0  0  0  0
   -3.9735    2.4189   -0.0978 H   0  0  0  0  0  0  0  0  0  0  0  0
   -2.1711    3.8816    0.5390 H   0  0  0  0  0  0  0  0  0  0  0  0
   -1.5322    2.2556    0.4594 H   0  0  0  0  0  0  0  0  0  0  0  0
   -1.6244    2.0730    2.9575 H   0  0  0  0  0  0  0  0  0  0  0  0
   -2.4074    3.6621    3.0440 H   0  0  0  0  0  0  0  0  0  0  0  0
 20 23  1  0
 21 23  1  0
 22 23  1  0
  1  2  1  0
  2  3  1  0
  3  4  1  0
  4  5  1  0
  3  6  1  0
  6  7  1  0
  7  8  1  0
  8  9  1  0
  9 10  1  0
 10 11  1  0
  3 12  1  0
 12 13  1  0
 13 14  1  0
 14 15  1  0
 14 16  2  0
 29 17  1  0
 17 18  2  0
 11 19  1  0
 19 20  1  0
 15 25  1  0
 25 26  1  0
 26 27  1  0
 27 28  1  0
 28 29  1  0
  1 30  1  0
  2 31  1  0
  2 32  1  0
  4 33  1  0
  4 34  1  0
  5 35  1  0
  5 36  1  0
  5 37  1  0
  6 38  1  0
  6 39  1  0
  8 40  1  0
  8 41  1  0
  9 42  1  0
  9 43  1  0
 10 44  1  0
 10 45  1  0
 12 46  1  0
 12 47  1  0
 15 48  1  0
 15 49  1  0
 17 50  1  0
 19 51  1  0
 19 52  1  0
 20 53  1  0
 20 54  1  0
 21 55  1  0
 21 56  1  0
 21 57  1  0
 22 58  1  0
 22 59  1  0
 22 60  1  0
 23 61  1  0
 25 62  1  0
 25 63  1  0
 26 64  1  0
 26 65  1  0
 27 66  1  0
 27 67  1  0
 28 68  1  0
 28 69  1  0
 29 70  1  0
 29 71  1  0
M  CHG  2  23   1  24  -1
M  STY  2   1 SUP   2 MUL
M  SLB  2   1   1   2   2
M  SAL   1  2  23  24
M  SBL   1  3   1   2   3
M  SMT   1 NHCl
M  SBV   1   1    0.0000    0.8250
M  SBV   1   2   -0.7145   -0.4125
M  SBV   1   3    0.7145   -0.4125
M  SAL   2  6  15  25  26  27  28  29
M  SPA   2  1  15
M  SBL   2  2  17  19
M  SDI   2  4    1.8624    2.4651    1.8624    3.0426
M  SDI   2  4    2.4812    3.0426    2.4812    2.4651
M  SMT   2 6
M  END
