Yan17si_A10.mol
     RDKit          3D

 88 87  0  1  0  0  0  0  0  0999 V2000
    3.2764    2.0108   -3.8093 O   0  0  0  0  0  0  0  0  0  0  0  0
    3.8848    2.5777   -2.6573 C   0  0  0  0  0  0  0  0  0  0  0  0
    3.5422    1.8347   -1.3402 C   0  0  0  0  0  0  0  0  0  0  0  0
    4.0805    0.3680   -1.3600 C   0  0  0  0  0  0  0  0  0  0  0  0
    3.3876   -0.6425   -2.2634 C   0  0  0  0  0  0  0  0  0  0  0  0
    2.0211    1.8838   -1.0404 C   0  0  0  0  0  0  0  0  0  0  0  0
    1.2487    1.5231   -2.1886 O   0  0  0  0  0  0  0  0  0  0  0  0
   -0.1158    1.2068   -1.8915 C   0  0  0  0  0  0  0  0  0  0  0  0
   -0.9415    2.4509   -1.5614 C   0  0  0  0  0  0  0  0  0  0  0  0
   -2.3793    2.1269   -1.1576 C   0  0  0  0  0  0  0  0  0  0  0  0
   -3.3720    1.5123   -2.5541 S   0  0  0  0  0  0  0  0  0  0  0  0
    4.2470    2.5779   -0.1678 C   0  0  0  0  0  0  0  0  0  0  0  0
    5.6708    2.5830   -0.3577 O   0  0  0  0  0  0  0  0  0  0  0  0
    6.4165    2.6555    0.7813 C   0  0  0  0  0  0  0  0  0  0  0  0
    7.8864    2.6499    0.4291 C   0  0  0  0  0  0  0  0  0  0  0  0
    5.9628    2.7412    1.9141 O   0  0  0  0  0  0  0  0  0  0  0  0
    9.0649   -4.1828    0.8078 C   0  0  0  0  0  0  0  0  0  0  0  0
    8.7532   -4.5164    1.9451 O   0  0  0  0  0  0  0  0  0  0  0  0
   -4.6784    0.6295   -1.6294 C   0  0  0  0  0  0  0  0  0  0  0  0
   -4.2073   -0.7726   -1.2428 C   0  0  0  0  0  0  0  0  0  0  0  0
   -5.1728   -1.4933   -0.2974 C   0  0  0  0  0  0  0  0  0  0  0  0
   -6.4708   -1.9442   -0.9509 C   0  0  0  0  0  0  0  0  0  0  0  0
   -7.3442   -2.6996   -0.1700 N   0  0  0  0  0  0  0  0  0  0  0  0
   -6.7332   -1.6421   -2.1153 O   0  0  0  0  0  0  0  0  0  0  0  0
   -7.1324   -3.0620    1.2368 C   0  0  0  0  0  0  0  0  0  0  0  0
   -8.2043   -2.5344    2.1947 C   0  0  0  0  0  0  0  0  0  0  0  0
   -8.2394   -1.0016    2.2521 C   0  0  0  0  0  0  0  0  0  0  0  0
   -9.0563   -0.4912    3.3675 N   0  0  0  0  0  0  0  0  0  0  0  0
   -8.9131    0.9644    3.4689 C   0  0  0  0  0  0  0  0  0  0  0  0
  -10.4726   -0.8395    3.2300 C   0  0  0  0  0  0  0  0  0  0  0  0
   -8.5759   -3.1670   -0.7902 C   0  0  0  0  0  0  0  0  0  0  0  0
    8.7704    2.1623    1.5767 C   0  0  0  0  0  0  0  0  0  0  0  0
    8.5535    0.7017    1.9889 C   0  0  0  0  0  0  0  0  0  0  0  0
    8.8784   -0.3064    0.8824 C   0  0  0  0  0  0  0  0  0  0  0  0
    8.8000   -1.7432    1.4074 C   0  0  0  0  0  0  0  0  0  0  0  0
    9.1299   -2.7561    0.3140 C   0  0  0  0  0  0  0  0  0  0  0  0
    2.3415    1.8304   -3.5690 H   0  0  0  0  0  0  0  0  0  0  0  0
    3.5631    3.6238   -2.6010 H   0  0  0  0  0  0  0  0  0  0  0  0
    4.9640    2.5797   -2.8365 H   0  0  0  0  0  0  0  0  0  0  0  0
    5.1450    0.3802   -1.6283 H   0  0  0  0  0  0  0  0  0  0  0  0
    4.0359   -0.0341   -0.3377 H   0  0  0  0  0  0  0  0  0  0  0  0
    2.3428   -0.7873   -1.9817 H   0  0  0  0  0  0  0  0  0  0  0  0
    3.8791   -1.6153   -2.1626 H   0  0  0  0  0  0  0  0  0  0  0  0
    3.4406   -0.3661   -3.3183 H   0  0  0  0  0  0  0  0  0  0  0  0
    1.7827    1.2208   -0.1971 H   0  0  0  0  0  0  0  0  0  0  0  0
    1.7381    2.9048   -0.7570 H   0  0  0  0  0  0  0  0  0  0  0  0
   -0.5142    0.7203   -2.7872 H   0  0  0  0  0  0  0  0  0  0  0  0
   -0.1543    0.4695   -1.0800 H   0  0  0  0  0  0  0  0  0  0  0  0
   -0.9113    3.1554   -2.4029 H   0  0  0  0  0  0  0  0  0  0  0  0
   -0.4751    2.9819   -0.7235 H   0  0  0  0  0  0  0  0  0  0  0  0
   -2.3718    1.3948   -0.3448 H   0  0  0  0  0  0  0  0  0  0  0  0
   -2.8653    3.0349   -0.7814 H   0  0  0  0  0  0  0  0  0  0  0  0
    3.9213    3.6244   -0.1297 H   0  0  0  0  0  0  0  0  0  0  0  0
    3.9733    2.0989    0.7832 H   0  0  0  0  0  0  0  0  0  0  0  0
    8.1598    3.6798    0.1704 H   0  0  0  0  0  0  0  0  0  0  0  0
    8.0447    2.0284   -0.4582 H   0  0  0  0  0  0  0  0  0  0  0  0
    9.3176   -4.9470    0.0500 H   0  0  0  0  0  0  0  0  0  0  0  0
   -5.5537    0.5756   -2.2830 H   0  0  0  0  0  0  0  0  0  0  0  0
   -4.9610    1.2201   -0.7527 H   0  0  0  0  0  0  0  0  0  0  0  0
   -3.2360   -0.7096   -0.7350 H   0  0  0  0  0  0  0  0  0  0  0  0
   -4.0523   -1.3757   -2.1456 H   0  0  0  0  0  0  0  0  0  0  0  0
   -5.4065   -0.8443    0.5540 H   0  0  0  0  0  0  0  0  0  0  0  0
   -4.6569   -2.3903    0.0678 H   0  0  0  0  0  0  0  0  0  0  0  0
   -6.1534   -2.7313    1.5872 H   0  0  0  0  0  0  0  0  0  0  0  0
   -7.1211   -4.1563    1.2789 H   0  0  0  0  0  0  0  0  0  0  0  0
   -7.9831   -2.9292    3.1947 H   0  0  0  0  0  0  0  0  0  0  0  0
   -9.1850   -2.9307    1.9056 H   0  0  0  0  0  0  0  0  0  0  0  0
   -7.2085   -0.6493    2.3934 H   0  0  0  0  0  0  0  0  0  0  0  0
   -8.5908   -0.5935    1.2950 H   0  0  0  0  0  0  0  0  0  0  0  0
   -7.8634    1.2419    3.6150 H   0  0  0  0  0  0  0  0  0  0  0  0
   -9.2851    1.4787    2.5751 H   0  0  0  0  0  0  0  0  0  0  0  0
   -9.4620    1.3447    4.3376 H   0  0  0  0  0  0  0  0  0  0  0  0
  -10.6236   -1.9206    3.2888 H   0  0  0  0  0  0  0  0  0  0  0  0
  -10.8987   -0.4735    2.2896 H   0  0  0  0  0  0  0  0  0  0  0  0
  -11.0517   -0.4150    4.0576 H   0  0  0  0  0  0  0  0  0  0  0  0
   -8.5096   -3.1734   -1.8806 H   0  0  0  0  0  0  0  0  0  0  0  0
   -8.7915   -4.1849   -0.4523 H   0  0  0  0  0  0  0  0  0  0  0  0
   -9.3899   -2.4998   -0.4916 H   0  0  0  0  0  0  0  0  0  0  0  0
    9.8210    2.2960    1.2896 H   0  0  0  0  0  0  0  0  0  0  0  0
    8.6050    2.7956    2.4572 H   0  0  0  0  0  0  0  0  0  0  0  0
    9.1934    0.4996    2.8562 H   0  0  0  0  0  0  0  0  0  0  0  0
    7.5221    0.5521    2.3276 H   0  0  0  0  0  0  0  0  0  0  0  0
    8.1727   -0.1940    0.0500 H   0  0  0  0  0  0  0  0  0  0  0  0
    9.8848   -0.1150    0.4899 H   0  0  0  0  0  0  0  0  0  0  0  0
    7.7962   -1.9397    1.8042 H   0  0  0  0  0  0  0  0  0  0  0  0
    9.4983   -1.8657    2.2451 H   0  0  0  0  0  0  0  0  0  0  0  0
   10.1433   -2.5902   -0.0698 H   0  0  0  0  0  0  0  0  0  0  0  0
    8.4239   -2.6661   -0.5199 H   0  0  0  0  0  0  0  0  0  0  0  0
  1  2  1  0
  2  3  1  0
  3  4  1  0
  4  5  1  0
  3  6  1  0
  6  7  1  0
  7  8  1  0
  8  9  1  0
  9 10  1  0
 10 11  1  0
  3 12  1  0
 12 13  1  0
 13 14  1  0
 14 15  1  0
 14 16  2  0
 36 17  1  0
 17 18  2  0
 11 19  1  0
 19 20  1  0
 20 21  1  0
 21 22  1  0
 22 23  1  0
 22 24  2  0
 23 25  1  0
 25 26  1  0
 26 27  1  0
 27 28  1  0
 28 29  1  0
 28 30  1  0
 23 31  1  0
 15 32  1  0
 32 33  1  0
 33 34  1  0
 34 35  1  0
 35 36  1  0
  1 37  1  0
  2 38  1  0
  2 39  1  0
  4 40  1  0
  4 41  1  0
  5 42  1  0
  5 43  1  0
  5 44  1  0
  6 45  1  0
  6 46  1  0
  8 47  1  0
  8 48  1  0
  9 49  1  0
  9 50  1  0
 10 51  1  0
 10 52  1  0
 12 53  1  0
 12 54  1  0
 15 55  1  0
 15 56  1  0
 17 57  1  0
 19 58  1  0
 19 59  1  0
 20 60  1  0
 20 61  1  0
 21 62  1  0
 21 63  1  0
 25 64  1  0
 25 65  1  0
 26 66  1  0
 26 67  1  0
 27 68  1  0
 27 69  1  0
 29 70  1  0
 29 71  1  0
 29 72  1  0
 30 73  1  0
 30 74  1  0
 30 75  1  0
 31 76  1  0
 31 77  1  0
 31 78  1  0
 32 79  1  0
 32 80  1  0
 33 81  1  0
 33 82  1  0
 34 83  1  0
 34 84  1  0
 35 85  1  0
 35 86  1  0
 36 87  1  0
 36 88  1  0
M  STY  1   1 MUL
M  SLB  1   1   1
M  SAL   1  6  15  32  33  34  35  36
M  SPA   1  1  15
M  SBL   1  2  14  16
M  SDI   1  4    2.0885    4.6069    2.0885    5.1844
M  SDI   1  4    2.7073    5.1844    2.7073    4.6069
M  SMT   1 6
M  END
