Yan17si_A17.mol
     RDKit          3D

 65 63  0  2  0  0  0  0  0  0999 V2000
    0.4358    0.0534   -1.8603 O   0  0  0  0  0  0  0  0  0  0  0  0
    0.9454    0.7391   -0.7222 C   0  0  0  0  0  0  0  0  0  0  0  0
    0.5832    0.0446    0.6194 C   0  0  0  0  0  0  0  0  0  0  0  0
    0.9948   -1.4545    0.5333 C   0  0  0  0  0  0  0  0  0  0  0  0
    0.8242   -2.2572    1.8183 C   0  0  0  0  0  0  0  0  0  0  0  0
    1.3252    0.7844    1.7588 C   0  0  0  0  0  0  0  0  0  0  0  0
    2.7362    0.5934    1.6248 O   0  0  0  0  0  0  0  0  0  0  0  0
    3.4665    1.2418    2.6654 C   0  0  0  0  0  0  0  0  0  0  0  0
    4.9519    1.0083    2.4153 C   0  0  0  0  0  0  0  0  0  0  0  0
    5.3936    1.6290    1.0878 C   0  0  0  0  0  0  0  0  0  0  0  0
    7.1367    1.1928    0.7390 S   0  0  0  0  0  0  0  0  0  0  0  0
   -0.9384    0.1940    0.8833 C   0  0  0  0  0  0  0  0  0  0  0  0
   -1.7008   -0.4558   -0.1495 O   0  0  0  0  0  0  0  0  0  0  0  0
   -2.7519   -1.2169    0.2664 C   0  0  0  0  0  0  0  0  0  0  0  0
   -3.4736   -1.8044   -0.9194 C   0  0  0  0  0  0  0  0  0  0  0  0
   -3.0798   -1.4023    1.4294 O   0  0  0  0  0  0  0  0  0  0  0  0
   -9.4512    0.0370   -1.8715 C   0  0  0  0  0  0  0  0  0  0  0  0
   -9.2369    0.5281   -2.9759 O   0  0  0  0  0  0  0  0  0  0  0  0
    6.8630    0.0252   -0.6465 C   0  0  0  0  0  0  0  0  0  0  0  0
    8.1850   -0.6411   -1.0428 C   0  0  0  0  0  0  0  0  0  0  0  0
    9.2704    0.3695   -1.1637 N   0  0  0  0  0  4  0  0  0  0  0  0
    0.0000    0.0000    0.0000 Cl  0  0  0  0  0 15  0  0  0  0  0  0
   -4.2907   -0.7577   -1.6697 C   0  0  0  0  0  0  0  0  0  0  0  0
   -5.5367   -0.3304   -0.8862 C   0  0  0  0  0  0  0  0  0  0  0  0
   -6.3142    0.7575   -1.6364 C   0  0  0  0  0  0  0  0  0  0  0  0
   -7.5009    1.3159   -0.8418 C   0  0  0  0  0  0  0  0  0  0  0  0
   -8.6516    0.3355   -0.6236 C   0  0  0  0  0  0  0  0  0  0  0  0
   -0.5090   -0.1264   -1.6885 H   0  0  0  0  0  0  0  0  0  0  0  0
    2.0290    0.8074   -0.8572 H   0  0  0  0  0  0  0  0  0  0  0  0
    0.5512    1.7596   -0.7441 H   0  0  0  0  0  0  0  0  0  0  0  0
    2.0469   -1.5267    0.2271 H   0  0  0  0  0  0  0  0  0  0  0  0
    0.4192   -1.9597   -0.2527 H   0  0  0  0  0  0  0  0  0  0  0  0
    1.4838   -1.8921    2.6098 H   0  0  0  0  0  0  0  0  0  0  0  0
    1.0805   -3.3076    1.6374 H   0  0  0  0  0  0  0  0  0  0  0  0
   -0.2069   -2.2266    2.1813 H   0  0  0  0  0  0  0  0  0  0  0  0
    1.0014    0.4194    2.7427 H   0  0  0  0  0  0  0  0  0  0  0  0
    1.1077    1.8607    1.7128 H   0  0  0  0  0  0  0  0  0  0  0  0
    3.1836    0.8118    3.6323 H   0  0  0  0  0  0  0  0  0  0  0  0
    3.2360    2.3129    2.6707 H   0  0  0  0  0  0  0  0  0  0  0  0
    5.1351   -0.0759    2.3971 H   0  0  0  0  0  0  0  0  0  0  0  0
    5.5293    1.4366    3.2445 H   0  0  0  0  0  0  0  0  0  0  0  0
    4.7619    1.2901    0.2565 H   0  0  0  0  0  0  0  0  0  0  0  0
    5.3187    2.7237    1.1349 H   0  0  0  0  0  0  0  0  0  0  0  0
   -1.1886   -0.1776    1.8843 H   0  0  0  0  0  0  0  0  0  0  0  0
   -1.2181    1.2566    0.8606 H   0  0  0  0  0  0  0  0  0  0  0  0
   -4.1140   -2.6217   -0.5674 H   0  0  0  0  0  0  0  0  0  0  0  0
   -2.7243   -2.2571   -1.5781 H   0  0  0  0  0  0  0  0  0  0  0  0
  -10.2887   -0.6655   -1.7280 H   0  0  0  0  0  0  0  0  0  0  0  0
    6.4776    0.5978   -1.4924 H   0  0  0  0  0  0  0  0  0  0  0  0
    6.1408   -0.7490   -0.3637 H   0  0  0  0  0  0  0  0  0  0  0  0
    8.1097   -1.1477   -2.0088 H   0  0  0  0  0  0  0  0  0  0  0  0
    8.5083   -1.3615   -0.2844 H   0  0  0  0  0  0  0  0  0  0  0  0
    9.2799    0.9470   -0.3058 H   0  0  0  0  0  0  0  0  0  0  0  0
    9.1143    1.0160   -1.9473 H   0  0  0  0  0  0  0  0  0  0  0  0
   10.1985   -0.0576   -1.2688 H   0  0  0  0  0  0  0  0  0  0  0  0
   -4.6039   -1.1780   -2.6329 H   0  0  0  0  0  0  0  0  0  0  0  0
   -3.6704    0.1216   -1.8810 H   0  0  0  0  0  0  0  0  0  0  0  0
   -5.2445    0.0432    0.1008 H   0  0  0  0  0  0  0  0  0  0  0  0
   -6.1729   -1.2098   -0.7292 H   0  0  0  0  0  0  0  0  0  0  0  0
   -6.6482    0.3757   -2.6079 H   0  0  0  0  0  0  0  0  0  0  0  0
   -5.6366    1.5952   -1.8491 H   0  0  0  0  0  0  0  0  0  0  0  0
   -7.1382    1.6594    0.1355 H   0  0  0  0  0  0  0  0  0  0  0  0
   -7.8760    2.2064   -1.3598 H   0  0  0  0  0  0  0  0  0  0  0  0
   -9.3544    0.7739    0.0938 H   0  0  0  0  0  0  0  0  0  0  0  0
   -8.3041   -0.6137   -0.2066 H   0  0  0  0  0  0  0  0  0  0  0  0
 20 21  1  0
  1  2  1  0
  2  3  1  0
  3  4  1  0
  4  5  1  0
  3  6  1  0
  6  7  1  0
  7  8  1  0
  8  9  1  0
  9 10  1  0
 10 11  1  0
  3 12  1  0
 12 13  1  0
 13 14  1  0
 14 15  1  0
 14 16  2  0
 27 17  1  0
 17 18  2  0
 11 19  1  0
 19 20  1  0
 15 23  1  0
 23 24  1  0
 24 25  1  0
 25 26  1  0
 26 27  1  0
  1 28  1  0
  2 29  1  0
  2 30  1  0
  4 31  1  0
  4 32  1  0
  5 33  1  0
  5 34  1  0
  5 35  1  0
  6 36  1  0
  6 37  1  0
  8 38  1  0
  8 39  1  0
  9 40  1  0
  9 41  1  0
 10 42  1  0
 10 43  1  0
 12 44  1  0
 12 45  1  0
 15 46  1  0
 15 47  1  0
 17 48  1  0
 19 49  1  0
 19 50  1  0
 20 51  1  0
 20 52  1  0
 21 53  1  0
 21 54  1  0
 21 55  1  0
 23 56  1  0
 23 57  1  0
 24 58  1  0
 24 59  1  0
 25 60  1  0
 25 61  1  0
 26 62  1  0
 26 63  1  0
 27 64  1  0
 27 65  1  0
M  CHG  2  21   1  22  -1
M  STY  2   1 SUP   2 MUL
M  SLB  2   1   1   2   2
M  SAL   1  2  21  22
M  SBL   1  1   1
M  SMT   1 NH3Cl
M  SBV   1   1    0.0000    0.8250
M  SAL   2  6  15  23  24  25  26  27
M  SPA   2  1  15
M  SBL   2  2  15  17
M  SDI   2  4    1.5052    2.4651    1.5052    3.0426
M  SDI   2  4    2.1239    3.0426    2.1239    2.4651
M  SMT   2 6
M  END
