Yan17si_A18.mol
     RDKit          3D

 75 74  0  1  0  0  0  0  0  0999 V2000
   -1.7930    2.0922   -1.0700 O   0  0  0  0  0  0  0  0  0  0  0  0
   -1.4916    2.2468   -2.4546 C   0  0  0  0  0  0  0  0  0  0  0  0
   -0.6786    1.0564   -3.0171 C   0  0  0  0  0  0  0  0  0  0  0  0
   -0.1988    1.3948   -4.4635 C   0  0  0  0  0  0  0  0  0  0  0  0
   -1.2950    1.6022   -5.5032 C   0  0  0  0  0  0  0  0  0  0  0  0
    0.5645    0.8156   -2.1202 C   0  0  0  0  0  0  0  0  0  0  0  0
    1.4365    1.9489   -2.1747 O   0  0  0  0  0  0  0  0  0  0  0  0
    2.4580    1.9409   -1.1742 C   0  0  0  0  0  0  0  0  0  0  0  0
    3.5616    0.9341   -1.4972 C   0  0  0  0  0  0  0  0  0  0  0  0
    4.6882    0.9164   -0.4652 C   0  0  0  0  0  0  0  0  0  0  0  0
    5.7075    2.4242   -0.5330 S   0  0  0  0  0  0  0  0  0  0  0  0
   -1.5325   -0.2377   -3.0424 C   0  0  0  0  0  0  0  0  0  0  0  0
   -1.8198   -0.7377   -1.7269 O   0  0  0  0  0  0  0  0  0  0  0  0
   -3.0926   -0.5550   -1.2701 C   0  0  0  0  0  0  0  0  0  0  0  0
   -3.1794   -1.0548    0.1550 C   0  0  0  0  0  0  0  0  0  0  0  0
   -4.0152   -0.0709   -1.9107 O   0  0  0  0  0  0  0  0  0  0  0  0
   -8.7487   -1.7906    4.2141 C   0  0  0  0  0  0  0  0  0  0  0  0
   -9.1343   -0.9520    5.0227 O   0  0  0  0  0  0  0  0  0  0  0  0
    7.1572    1.8741    0.4387 C   0  0  0  0  0  0  0  0  0  0  0  0
    6.9260    1.7788    1.9564 C   0  0  0  0  0  0  0  0  0  0  0  0
    6.0994    0.6595    2.4284 N   0  0  0  0  0  0  0  0  0  0  0  0
    6.7552   -0.6366    2.2737 C   0  0  0  0  0  0  0  0  0  0  0  0
    5.9596   -1.7737    2.9293 C   0  0  0  0  0  0  0  0  0  0  0  0
    4.5937   -2.0568    2.2937 C   0  0  0  0  0  0  0  0  0  0  0  0
    3.4599   -1.2326    2.8853 C   0  0  0  0  0  0  0  0  0  0  0  0
   -4.5570   -0.8463    0.7853 C   0  0  0  0  0  0  0  0  0  0  0  0
   -5.5931   -1.8578    0.2819 C   0  0  0  0  0  0  0  0  0  0  0  0
   -7.0090   -1.5691    0.7907 C   0  0  0  0  0  0  0  0  0  0  0  0
   -7.1726   -1.7941    2.2945 C   0  0  0  0  0  0  0  0  0  0  0  0
   -8.6042   -1.5157    2.7411 C   0  0  0  0  0  0  0  0  0  0  0  0
   -2.3086    2.8764   -0.8121 H   0  0  0  0  0  0  0  0  0  0  0  0
   -2.4429    2.3537   -2.9860 H   0  0  0  0  0  0  0  0  0  0  0  0
   -0.9362    3.1846   -2.5675 H   0  0  0  0  0  0  0  0  0  0  0  0
    0.4142    2.3049   -4.4457 H   0  0  0  0  0  0  0  0  0  0  0  0
    0.4595    0.5918   -4.8200 H   0  0  0  0  0  0  0  0  0  0  0  0
   -1.9675    2.4188   -5.2272 H   0  0  0  0  0  0  0  0  0  0  0  0
   -0.8433    1.8610   -6.4669 H   0  0  0  0  0  0  0  0  0  0  0  0
   -1.8873    0.6961   -5.6557 H   0  0  0  0  0  0  0  0  0  0  0  0
    0.2714    0.6256   -1.0814 H   0  0  0  0  0  0  0  0  0  0  0  0
    1.1105   -0.0630   -2.4828 H   0  0  0  0  0  0  0  0  0  0  0  0
    2.8666    2.9560   -1.1520 H   0  0  0  0  0  0  0  0  0  0  0  0
    2.0167    1.7494   -0.1890 H   0  0  0  0  0  0  0  0  0  0  0  0
    3.1274   -0.0725   -1.5305 H   0  0  0  0  0  0  0  0  0  0  0  0
    3.9510    1.1158   -2.5070 H   0  0  0  0  0  0  0  0  0  0  0  0
    4.2602    0.8113    0.5339 H   0  0  0  0  0  0  0  0  0  0  0  0
    5.3306    0.0531   -0.6653 H   0  0  0  0  0  0  0  0  0  0  0  0
   -2.4504   -0.0974   -3.6234 H   0  0  0  0  0  0  0  0  0  0  0  0
   -0.9732   -1.0335   -3.5488 H   0  0  0  0  0  0  0  0  0  0  0  0
   -2.4424   -0.4916    0.7402 H   0  0  0  0  0  0  0  0  0  0  0  0
   -2.9075   -2.1158    0.1768 H   0  0  0  0  0  0  0  0  0  0  0  0
   -8.5116   -2.8193    4.5366 H   0  0  0  0  0  0  0  0  0  0  0  0
    7.5466    0.9406    0.0206 H   0  0  0  0  0  0  0  0  0  0  0  0
    7.9319    2.6302    0.2670 H   0  0  0  0  0  0  0  0  0  0  0  0
    7.9009    1.7346    2.4582 H   0  0  0  0  0  0  0  0  0  0  0  0
    6.4600    2.7106    2.2999 H   0  0  0  0  0  0  0  0  0  0  0  0
    5.8863    0.8090    3.4155 H   0  0  0  0  0  0  0  0  0  0  0  0
    6.8936   -0.8743    1.2135 H   0  0  0  0  0  0  0  0  0  0  0  0
    7.7480   -0.6102    2.7392 H   0  0  0  0  0  0  0  0  0  0  0  0
    6.5674   -2.6838    2.8340 H   0  0  0  0  0  0  0  0  0  0  0  0
    5.8511   -1.5916    4.0060 H   0  0  0  0  0  0  0  0  0  0  0  0
    4.3530   -3.1139    2.4605 H   0  0  0  0  0  0  0  0  0  0  0  0
    4.6357   -1.9129    1.2085 H   0  0  0  0  0  0  0  0  0  0  0  0
    2.5068   -1.5336    2.4391 H   0  0  0  0  0  0  0  0  0  0  0  0
    3.3878   -1.3874    3.9660 H   0  0  0  0  0  0  0  0  0  0  0  0
    3.5868   -0.1636    2.7010 H   0  0  0  0  0  0  0  0  0  0  0  0
   -4.4506   -0.9530    1.8708 H   0  0  0  0  0  0  0  0  0  0  0  0
   -4.9074    0.1755    0.5957 H   0  0  0  0  0  0  0  0  0  0  0  0
   -5.2937   -2.8706    0.5759 H   0  0  0  0  0  0  0  0  0  0  0  0
   -5.6203   -1.8452   -0.8135 H   0  0  0  0  0  0  0  0  0  0  0  0
   -7.2890   -0.5402    0.5341 H   0  0  0  0  0  0  0  0  0  0  0  0
   -7.7052   -2.2275    0.2564 H   0  0  0  0  0  0  0  0  0  0  0  0
   -6.4919   -1.1445    2.8572 H   0  0  0  0  0  0  0  0  0  0  0  0
   -6.8998   -2.8272    2.5449 H   0  0  0  0  0  0  0  0  0  0  0  0
   -8.8738   -0.4715    2.5469 H   0  0  0  0  0  0  0  0  0  0  0  0
   -9.3136   -2.1587    2.2089 H   0  0  0  0  0  0  0  0  0  0  0  0
  1  2  1  0
  2  3  1  0
  3  4  1  0
  4  5  1  0
  3  6  1  0
  6  7  1  0
  7  8  1  0
  8  9  1  0
  9 10  1  0
 10 11  1  0
  3 12  1  0
 12 13  1  0
 13 14  1  0
 14 15  1  0
 14 16  2  0
 30 17  1  0
 17 18  2  0
 11 19  1  0
 19 20  1  0
 20 21  1  0
 21 22  1  0
 22 23  1  0
 23 24  1  0
 24 25  1  0
 15 26  1  0
 26 27  1  0
 27 28  1  0
 28 29  1  0
 29 30  1  0
  1 31  1  0
  2 32  1  0
  2 33  1  0
  4 34  1  0
  4 35  1  0
  5 36  1  0
  5 37  1  0
  5 38  1  0
  6 39  1  0
  6 40  1  0
  8 41  1  0
  8 42  1  0
  9 43  1  0
  9 44  1  0
 10 45  1  0
 10 46  1  0
 12 47  1  0
 12 48  1  0
 15 49  1  0
 15 50  1  0
 17 51  1  0
 19 52  1  0
 19 53  1  0
 20 54  1  0
 20 55  1  0
 21 56  1  0
 22 57  1  0
 22 58  1  0
 23 59  1  0
 23 60  1  0
 24 61  1  0
 24 62  1  0
 25 63  1  0
 25 64  1  0
 25 65  1  0
 26 66  1  0
 26 67  1  0
 27 68  1  0
 27 69  1  0
 28 70  1  0
 28 71  1  0
 29 72  1  0
 29 73  1  0
 30 74  1  0
 30 75  1  0
M  STY  1   1 MUL
M  SLB  1   1   1
M  SAL   1  6  15  26  27  28  29  30
M  SPA   1  1  15
M  SBL   1  2  14  16
M  SDI   1  4    2.2197    3.4964    2.2197    4.0739
M  SDI   1  4    2.8384    4.0739    2.8384    3.4964
M  SMT   1 6
M  END
