Yan17si_A13.mol
     RDKit          3D

 89 89  0  1  0  0  0  0  0  0999 V2000
    4.8115   -5.9593   -1.9866 O   0  0  0  0  0  0  0  0  0  0  0  0
    3.5045   -5.4202   -2.1179 C   0  0  0  0  0  0  0  0  0  0  0  0
    3.3077   -4.0811   -1.3720 C   0  0  0  0  0  0  0  0  0  0  0  0
    3.3409   -4.2682    0.1795 C   0  0  0  0  0  0  0  0  0  0  0  0
    4.6229   -4.8258    0.7914 C   0  0  0  0  0  0  0  0  0  0  0  0
    1.8949   -3.5629   -1.7746 C   0  0  0  0  0  0  0  0  0  0  0  0
    1.4929   -2.4597   -0.9621 O   0  0  0  0  0  0  0  0  0  0  0  0
    0.1871   -1.9808   -1.2852 C   0  0  0  0  0  0  0  0  0  0  0  0
   -0.5112   -1.5850    0.0193 C   0  0  0  0  0  0  0  0  0  0  0  0
   -0.7271   -2.7633    0.9798 C   0  0  0  0  0  0  0  0  0  0  0  0
   -1.8185   -4.0784    0.3111 S   0  0  0  0  0  0  0  0  0  0  0  0
    4.3965   -3.0739   -1.8262 C   0  0  0  0  0  0  0  0  0  0  0  0
    4.1593   -1.7750   -1.2663 O   0  0  0  0  0  0  0  0  0  0  0  0
    5.2449   -1.0231   -0.9533 C   0  0  0  0  0  0  0  0  0  0  0  0
    4.8114    0.2893   -0.3472 C   0  0  0  0  0  0  0  0  0  0  0  0
    6.4129   -1.3675   -1.0924 O   0  0  0  0  0  0  0  0  0  0  0  0
    5.7255    5.5379   -2.8489 C   0  0  0  0  0  0  0  0  0  0  0  0
    6.9380    5.4618   -2.6733 O   0  0  0  0  0  0  0  0  0  0  0  0
   -3.4386   -3.2728    0.5062 C   0  0  0  0  0  0  0  0  0  0  0  0
   -3.9734   -3.4371    1.9316 C   0  0  0  0  0  0  0  0  0  0  0  0
   -5.2856   -2.6741    2.1242 C   0  0  0  0  0  0  0  0  0  0  0  0
   -5.0783   -1.1701    2.1911 C   0  0  0  0  0  0  0  0  0  0  0  0
   -6.2612   -0.4649    2.1764 N   0  0  0  0  0  0  0  0  0  0  0  0
   -3.9741   -0.6365    2.2589 O   0  0  0  0  0  0  0  0  0  0  0  0
   -6.2894    0.9835    2.2819 C   0  0  0  0  0  0  0  0  0  0  0  0
   -5.8329    1.6823    0.9837 C   0  0  0  0  0  0  0  0  0  0  0  0
   -6.0651    3.1405    0.9720 N   0  0  0  0  0  0  0  0  0  0  0  0
   -5.7656    3.7275   -0.3496 C   0  0  0  0  0  0  0  0  0  0  0  0
   -4.4181    4.4437   -0.4147 C   0  0  0  0  0  0  0  0  0  0  0  0
   -4.3267    5.5700    0.6155 C   0  0  0  0  0  0  0  0  0  0  0  0
   -5.2048    5.3076    1.8374 C   0  0  0  0  0  0  0  0  0  0  0  0
   -5.3691    3.8114    2.0849 C   0  0  0  0  0  0  0  0  0  0  0  0
    3.9799    1.1259   -1.3175 C   0  0  0  0  0  0  0  0  0  0  0  0
    3.3102    2.3322   -0.6474 C   0  0  0  0  0  0  0  0  0  0  0  0
    4.2605    3.3354    0.0166 C   0  0  0  0  0  0  0  0  0  0  0  0
    5.3048    3.9712   -0.9082 C   0  0  0  0  0  0  0  0  0  0  0  0
    4.6881    4.7908   -2.0397 C   0  0  0  0  0  0  0  0  0  0  0  0
    5.4015   -5.5212   -2.6211 H   0  0  0  0  0  0  0  0  0  0  0  0
    3.2961   -5.3045   -3.1908 H   0  0  0  0  0  0  0  0  0  0  0  0
    2.8060   -6.1725   -1.7289 H   0  0  0  0  0  0  0  0  0  0  0  0
    2.5120   -4.9294    0.4778 H   0  0  0  0  0  0  0  0  0  0  0  0
    3.1484   -3.3037    0.6689 H   0  0  0  0  0  0  0  0  0  0  0  0
    4.7867   -5.8651    0.5015 H   0  0  0  0  0  0  0  0  0  0  0  0
    4.5465   -4.8114    1.8863 H   0  0  0  0  0  0  0  0  0  0  0  0
    5.5021   -4.2340    0.5188 H   0  0  0  0  0  0  0  0  0  0  0  0
    1.8778   -3.2587   -2.8290 H   0  0  0  0  0  0  0  0  0  0  0  0
    1.1622   -4.3729   -1.6371 H   0  0  0  0  0  0  0  0  0  0  0  0
    0.3016   -1.1003   -1.9283 H   0  0  0  0  0  0  0  0  0  0  0  0
   -0.3970   -2.7295   -1.8327 H   0  0  0  0  0  0  0  0  0  0  0  0
    0.1155   -0.8460    0.5405 H   0  0  0  0  0  0  0  0  0  0  0  0
   -1.4617   -1.0848   -0.2109 H   0  0  0  0  0  0  0  0  0  0  0  0
   -1.1416   -2.4056    1.9291 H   0  0  0  0  0  0  0  0  0  0  0  0
    0.2335   -3.2354    1.2190 H   0  0  0  0  0  0  0  0  0  0  0  0
    5.3945   -3.4450   -1.5666 H   0  0  0  0  0  0  0  0  0  0  0  0
    4.3639   -2.9631   -2.9192 H   0  0  0  0  0  0  0  0  0  0  0  0
    4.2506    0.0695    0.5689 H   0  0  0  0  0  0  0  0  0  0  0  0
    5.7131    0.8371   -0.0532 H   0  0  0  0  0  0  0  0  0  0  0  0
    5.3166    6.1765   -3.6534 H   0  0  0  0  0  0  0  0  0  0  0  0
   -4.1308   -3.7578   -0.1937 H   0  0  0  0  0  0  0  0  0  0  0  0
   -3.3677   -2.2247    0.2056 H   0  0  0  0  0  0  0  0  0  0  0  0
   -4.1609   -4.5023    2.1237 H   0  0  0  0  0  0  0  0  0  0  0  0
   -3.2391   -3.1023    2.6743 H   0  0  0  0  0  0  0  0  0  0  0  0
   -5.9842   -2.9067    1.3096 H   0  0  0  0  0  0  0  0  0  0  0  0
   -5.7509   -2.9798    3.0702 H   0  0  0  0  0  0  0  0  0  0  0  0
   -7.1444   -0.9596    2.1352 H   0  0  0  0  0  0  0  0  0  0  0  0
   -5.6549    1.2715    3.1248 H   0  0  0  0  0  0  0  0  0  0  0  0
   -7.3222    1.2610    2.5187 H   0  0  0  0  0  0  0  0  0  0  0  0
   -4.7721    1.4638    0.7923 H   0  0  0  0  0  0  0  0  0  0  0  0
   -6.4035    1.2331    0.1607 H   0  0  0  0  0  0  0  0  0  0  0  0
   -6.5598    4.4491   -0.5745 H   0  0  0  0  0  0  0  0  0  0  0  0
   -5.8159    2.9777   -1.1461 H   0  0  0  0  0  0  0  0  0  0  0  0
   -4.2468    4.8561   -1.4175 H   0  0  0  0  0  0  0  0  0  0  0  0
   -3.6113    3.7185   -0.2389 H   0  0  0  0  0  0  0  0  0  0  0  0
   -4.6162    6.5261    0.1616 H   0  0  0  0  0  0  0  0  0  0  0  0
   -3.2796    5.6808    0.9250 H   0  0  0  0  0  0  0  0  0  0  0  0
   -4.7674    5.7951    2.7178 H   0  0  0  0  0  0  0  0  0  0  0  0
   -6.1918    5.7634    1.6874 H   0  0  0  0  0  0  0  0  0  0  0  0
   -4.3763    3.3735    2.2531 H   0  0  0  0  0  0  0  0  0  0  0  0
   -5.9476    3.6698    3.0062 H   0  0  0  0  0  0  0  0  0  0  0  0
    3.1850    0.5097   -1.7568 H   0  0  0  0  0  0  0  0  0  0  0  0
    4.6017    1.4502   -2.1615 H   0  0  0  0  0  0  0  0  0  0  0  0
    2.6924    2.8502   -1.3900 H   0  0  0  0  0  0  0  0  0  0  0  0
    2.6090    1.9662    0.1184 H   0  0  0  0  0  0  0  0  0  0  0  0
    3.6547    4.1331    0.4698 H   0  0  0  0  0  0  0  0  0  0  0  0
    4.7780    2.8474    0.8506 H   0  0  0  0  0  0  0  0  0  0  0  0
    5.9639    3.2009   -1.3247 H   0  0  0  0  0  0  0  0  0  0  0  0
    5.9468    4.6236   -0.3000 H   0  0  0  0  0  0  0  0  0  0  0  0
    3.9899    5.5325   -1.6365 H   0  0  0  0  0  0  0  0  0  0  0  0
    4.1393    4.1485   -2.7367 H   0  0  0  0  0  0  0  0  0  0  0  0
  1  2  1  0
  2  3  1  0
  3  4  1  0
  4  5  1  0
  3  6  1  0
  6  7  1  0
  7  8  1  0
  8  9  1  0
  9 10  1  0
 10 11  1  0
  3 12  1  0
 12 13  1  0
 13 14  1  0
 14 15  1  0
 14 16  2  0
 37 17  1  0
 17 18  2  0
 11 19  1  0
 19 20  1  0
 20 21  1  0
 21 22  1  0
 22 23  1  0
 22 24  2  0
 23 25  1  0
 25 26  1  0
 26 27  1  0
 27 28  1  0
 28 29  1  0
 29 30  1  0
 30 31  1  0
 31 32  1  0
 32 27  1  0
 15 33  1  0
 33 34  1  0
 34 35  1  0
 35 36  1  0
 36 37  1  0
  1 38  1  0
  2 39  1  0
  2 40  1  0
  4 41  1  0
  4 42  1  0
  5 43  1  0
  5 44  1  0
  5 45  1  0
  6 46  1  0
  6 47  1  0
  8 48  1  0
  8 49  1  0
  9 50  1  0
  9 51  1  0
 10 52  1  0
 10 53  1  0
 12 54  1  0
 12 55  1  0
 15 56  1  0
 15 57  1  0
 17 58  1  0
 19 59  1  0
 19 60  1  0
 20 61  1  0
 20 62  1  0
 21 63  1  0
 21 64  1  0
 23 65  1  0
 25 66  1  0
 25 67  1  0
 26 68  1  0
 26 69  1  0
 28 70  1  0
 28 71  1  0
 29 72  1  0
 29 73  1  0
 30 74  1  0
 30 75  1  0
 31 76  1  0
 31 77  1  0
 32 78  1  0
 32 79  1  0
 33 80  1  0
 33 81  1  0
 34 82  1  0
 34 83  1  0
 35 84  1  0
 35 85  1  0
 36 86  1  0
 36 87  1  0
 37 88  1  0
 37 89  1  0
M  STY  1   1 MUL
M  SLB  1   1   1
M  SAL   1  6  15  33  34  35  36  37
M  SPA   1  1  15
M  SBL   1  2  14  16
M  SDI   1  4    2.0885    4.6312    2.0885    5.2087
M  SDI   1  4    2.7073    5.2087    2.7073    4.6312
M  SMT   1 6
M  END
