Yan17si_A12.mol
     RDKit          3D

 84 84  0  1  0  0  0  0  0  0999 V2000
   -2.7943    3.9047    0.6488 O   0  0  0  0  0  0  0  0  0  0  0  0
   -2.9989    2.5981    0.1140 C   0  0  0  0  0  0  0  0  0  0  0  0
   -3.1534    1.5447    1.2340 C   0  0  0  0  0  0  0  0  0  0  0  0
   -4.2778    1.9310    2.2423 C   0  0  0  0  0  0  0  0  0  0  0  0
   -5.6734    2.1620    1.6769 C   0  0  0  0  0  0  0  0  0  0  0  0
   -1.8321    1.4706    2.0483 C   0  0  0  0  0  0  0  0  0  0  0  0
   -0.7591    1.0297    1.2159 O   0  0  0  0  0  0  0  0  0  0  0  0
    0.4902    1.0330    1.8994 C   0  0  0  0  0  0  0  0  0  0  0  0
    1.5721    0.4914    0.9686 C   0  0  0  0  0  0  0  0  0  0  0  0
    1.7439    1.3741   -0.2663 C   0  0  0  0  0  0  0  0  0  0  0  0
    2.9516    0.7047   -1.4657 S   0  0  0  0  0  0  0  0  0  0  0  0
   -3.4021    0.1555    0.5945 C   0  0  0  0  0  0  0  0  0  0  0  0
   -4.5571    0.1727   -0.2575 O   0  0  0  0  0  0  0  0  0  0  0  0
   -4.8724   -1.0403   -0.7982 C   0  0  0  0  0  0  0  0  0  0  0  0
   -6.0880   -0.8914   -1.6835 C   0  0  0  0  0  0  0  0  0  0  0  0
   -4.2554   -2.0769   -0.6039 O   0  0  0  0  0  0  0  0  0  0  0  0
  -11.8828   -1.1254   -1.0455 C   0  0  0  0  0  0  0  0  0  0  0  0
  -12.4004   -0.0184   -0.9347 O   0  0  0  0  0  0  0  0  0  0  0  0
    4.4991    0.7154   -0.4974 C   0  0  0  0  0  0  0  0  0  0  0  0
    4.9635    2.1246   -0.1297 C   0  0  0  0  0  0  0  0  0  0  0  0
    6.2534    2.1105    0.6930 C   0  0  0  0  0  0  0  0  0  0  0  0
    7.4867    1.7372   -0.1075 C   0  0  0  0  0  0  0  0  0  0  0  0
    8.6285    1.6745    0.6625 N   0  0  0  0  0  0  0  0  0  0  0  0
    7.4799    1.5040   -1.3097 O   0  0  0  0  0  0  0  0  0  0  0  0
    9.9301    1.3953    0.0902 C   0  0  0  0  0  0  0  0  0  0  0  0
   10.2965   -0.0839    0.1504 C   0  0  0  0  0  0  0  0  0  0  0  0
    9.4716   -0.9422   -0.8078 C   0  0  0  0  0  0  0  0  0  0  0  0
    9.9384   -2.3159   -0.8252 N   0  0  0  0  0  0  0  0  0  0  0  0
    9.4987   -3.3211   -0.0130 C   0  0  0  0  0  0  0  0  0  0  0  0
   10.1310   -4.4464   -0.2589 N   0  0  0  0  0  0  0  0  0  0  0  0
   10.9988   -4.1565   -1.2805 C   0  0  0  0  0  0  0  0  0  0  0  0
   10.8940   -2.8359   -1.6511 C   0  0  0  0  0  0  0  0  0  0  0  0
   -6.6495   -2.2263   -2.1744 C   0  0  0  0  0  0  0  0  0  0  0  0
   -7.2540   -3.1250   -1.0874 C   0  0  0  0  0  0  0  0  0  0  0  0
   -8.3817   -2.5086   -0.2548 C   0  0  0  0  0  0  0  0  0  0  0  0
   -9.5840   -2.0676   -1.0895 C   0  0  0  0  0  0  0  0  0  0  0  0
  -10.7239   -1.5825   -0.2004 C   0  0  0  0  0  0  0  0  0  0  0  0
   -3.6709    4.2873    0.8276 H   0  0  0  0  0  0  0  0  0  0  0  0
   -3.8729    2.6360   -0.5446 H   0  0  0  0  0  0  0  0  0  0  0  0
   -2.1372    2.3682   -0.5223 H   0  0  0  0  0  0  0  0  0  0  0  0
   -4.3521    1.1511    3.0119 H   0  0  0  0  0  0  0  0  0  0  0  0
   -3.9828    2.8450    2.7744 H   0  0  0  0  0  0  0  0  0  0  0  0
   -6.3349    2.5257    2.4713 H   0  0  0  0  0  0  0  0  0  0  0  0
   -5.6769    2.9119    0.8816 H   0  0  0  0  0  0  0  0  0  0  0  0
   -6.1153    1.2380    1.2960 H   0  0  0  0  0  0  0  0  0  0  0  0
   -1.9411    0.7600    2.8773 H   0  0  0  0  0  0  0  0  0  0  0  0
   -1.5842    2.4509    2.4732 H   0  0  0  0  0  0  0  0  0  0  0  0
    0.4215    0.3939    2.7869 H   0  0  0  0  0  0  0  0  0  0  0  0
    0.7362    2.0531    2.2160 H   0  0  0  0  0  0  0  0  0  0  0  0
    2.5063    0.4280    1.5352 H   0  0  0  0  0  0  0  0  0  0  0  0
    1.2955   -0.5224    0.6544 H   0  0  0  0  0  0  0  0  0  0  0  0
    0.7934    1.4508   -0.8054 H   0  0  0  0  0  0  0  0  0  0  0  0
    2.0270    2.3935    0.0122 H   0  0  0  0  0  0  0  0  0  0  0  0
   -2.5426   -0.1454   -0.0171 H   0  0  0  0  0  0  0  0  0  0  0  0
   -3.5468   -0.5922    1.3851 H   0  0  0  0  0  0  0  0  0  0  0  0
   -5.7821   -0.2990   -2.5541 H   0  0  0  0  0  0  0  0  0  0  0  0
   -6.8561   -0.3283   -1.1442 H   0  0  0  0  0  0  0  0  0  0  0  0
  -12.2823   -1.8669   -1.7585 H   0  0  0  0  0  0  0  0  0  0  0  0
    5.2515    0.2212   -1.1196 H   0  0  0  0  0  0  0  0  0  0  0  0
    4.3780    0.0918    0.3928 H   0  0  0  0  0  0  0  0  0  0  0  0
    5.1053    2.7251   -1.0365 H   0  0  0  0  0  0  0  0  0  0  0  0
    4.1991    2.6242    0.4751 H   0  0  0  0  0  0  0  0  0  0  0  0
    6.1559    1.4203    1.5386 H   0  0  0  0  0  0  0  0  0  0  0  0
    6.4221    3.1156    1.0978 H   0  0  0  0  0  0  0  0  0  0  0  0
    8.5739    1.9038    1.6475 H   0  0  0  0  0  0  0  0  0  0  0  0
   10.6541    1.9721    0.6757 H   0  0  0  0  0  0  0  0  0  0  0  0
    9.9690    1.7631   -0.9410 H   0  0  0  0  0  0  0  0  0  0  0  0
   11.3601   -0.1850   -0.1006 H   0  0  0  0  0  0  0  0  0  0  0  0
   10.1817   -0.4568    1.1760 H   0  0  0  0  0  0  0  0  0  0  0  0
    8.4158   -0.9657   -0.5178 H   0  0  0  0  0  0  0  0  0  0  0  0
    9.5340   -0.5632   -1.8341 H   0  0  0  0  0  0  0  0  0  0  0  0
    8.7283   -3.1830    0.7336 H   0  0  0  0  0  0  0  0  0  0  0  0
   11.6517   -4.9133   -1.6949 H   0  0  0  0  0  0  0  0  0  0  0  0
   11.4025   -2.2509   -2.4042 H   0  0  0  0  0  0  0  0  0  0  0  0
   -7.4094   -2.0258   -2.9388 H   0  0  0  0  0  0  0  0  0  0  0  0
   -5.8543   -2.7893   -2.6798 H   0  0  0  0  0  0  0  0  0  0  0  0
   -7.6310   -4.0357   -1.5702 H   0  0  0  0  0  0  0  0  0  0  0  0
   -6.4638   -3.4550   -0.4032 H   0  0  0  0  0  0  0  0  0  0  0  0
   -8.0006   -1.6621    0.3281 H   0  0  0  0  0  0  0  0  0  0  0  0
   -8.7099   -3.2591    0.4758 H   0  0  0  0  0  0  0  0  0  0  0  0
   -9.2959   -1.2623   -1.7754 H   0  0  0  0  0  0  0  0  0  0  0  0
   -9.9310   -2.9018   -1.7119 H   0  0  0  0  0  0  0  0  0  0  0  0
  -10.3966   -0.7490    0.4301 H   0  0  0  0  0  0  0  0  0  0  0  0
  -11.0801   -2.3877    0.4506 H   0  0  0  0  0  0  0  0  0  0  0  0
  1  2  1  0
  2  3  1  0
  3  4  1  0
  4  5  1  0
  3  6  1  0
  6  7  1  0
  7  8  1  0
  8  9  1  0
  9 10  1  0
 10 11  1  0
  3 12  1  0
 12 13  1  0
 13 14  1  0
 14 15  1  0
 14 16  2  0
 37 17  1  0
 17 18  2  0
 11 19  1  0
 19 20  1  0
 20 21  1  0
 21 22  1  0
 22 23  1  0
 22 24  2  0
 23 25  1  0
 25 26  1  0
 26 27  1  0
 27 28  1  0
 28 29  1  0
 29 30  2  0
 30 31  1  0
 31 32  2  0
 32 28  1  0
 15 33  1  0
 33 34  1  0
 34 35  1  0
 35 36  1  0
 36 37  1  0
  1 38  1  0
  2 39  1  0
  2 40  1  0
  4 41  1  0
  4 42  1  0
  5 43  1  0
  5 44  1  0
  5 45  1  0
  6 46  1  0
  6 47  1  0
  8 48  1  0
  8 49  1  0
  9 50  1  0
  9 51  1  0
 10 52  1  0
 10 53  1  0
 12 54  1  0
 12 55  1  0
 15 56  1  0
 15 57  1  0
 17 58  1  0
 19 59  1  0
 19 60  1  0
 20 61  1  0
 20 62  1  0
 21 63  1  0
 21 64  1  0
 23 65  1  0
 25 66  1  0
 25 67  1  0
 26 68  1  0
 26 69  1  0
 27 70  1  0
 27 71  1  0
 29 72  1  0
 31 73  1  0
 32 74  1  0
 33 75  1  0
 33 76  1  0
 34 77  1  0
 34 78  1  0
 35 79  1  0
 35 80  1  0
 36 81  1  0
 36 82  1  0
 37 83  1  0
 37 84  1  0
M  STY  1   1 MUL
M  SLB  1   1   1
M  SAL   1  6  15  33  34  35  36  37
M  SPA   1  1  15
M  SBL   1  2  14  16
M  SDI   1  4    2.0885    4.5959    2.0885    5.1734
M  SDI   1  4    2.7073    5.1734    2.7073    4.5959
M  SMT   1 6
M  END
