Yan17si_C12-SH.mol
     RDKit          3D

 91 90  0  1  0  0  0  0  0  0999 V2000
    5.1308    2.2562    0.6304 O   0  0  0  0  0  0  0  0  0  0  0  0
    3.7979    1.7812    0.4424 C   0  0  0  0  0  0  0  0  0  0  0  0
    3.4213    0.6210    1.4007 C   0  0  0  0  0  0  0  0  0  0  0  0
    3.6452    1.0829    2.8737 C   0  0  0  0  0  0  0  0  0  0  0  0
    3.2252    0.0806    3.9417 C   0  0  0  0  0  0  0  0  0  0  0  0
    1.9260    0.2614    1.1843 C   0  0  0  0  0  0  0  0  0  0  0  0
    1.5758    0.1714   -0.1968 O   0  0  0  0  0  0  0  0  0  0  0  0
    1.3322   -1.1477   -0.6828 C   0  0  0  0  0  0  0  0  0  0  0  0
    0.0087   -1.7401   -0.1941 C   0  0  0  0  0  0  0  0  0  0  0  0
   -1.1830   -0.8338   -0.5070 C   0  0  0  0  0  0  0  0  0  0  0  0
   -2.7287   -1.4868    0.2220 S   0  0  0  0  0  0  0  0  0  0  0  0
    4.2879   -0.6207    1.0708 C   0  0  0  0  0  0  0  0  0  0  0  0
    5.6371   -0.4328    1.5183 O   0  0  0  0  0  0  0  0  0  0  0  0
    6.4698   -1.4863    1.2976 C   0  0  0  0  0  0  0  0  0  0  0  0
    7.8768   -1.1281    1.7029 C   0  0  0  0  0  0  0  0  0  0  0  0
    6.1418   -2.5601    0.8127 O   0  0  0  0  0  0  0  0  0  0  0  0
    9.7790    3.5876   -1.4423 C   0  0  0  0  0  0  0  0  0  0  0  0
   10.9422    3.2195   -1.5708 O   0  0  0  0  0  0  0  0  0  0  0  0
   -3.1171   -2.8319   -0.9487 C   0  0  0  0  0  0  0  0  0  0  0  0
   -3.7589   -2.3675   -2.2589 C   0  0  0  0  0  0  0  0  0  0  0  0
   -5.2832   -2.1839   -2.2011 C   0  0  0  0  0  0  0  0  0  0  0  0
   -5.7337   -0.8789   -1.5424 C   0  0  0  0  0  0  0  0  0  0  0  0
   -7.2269   -0.5854   -1.7459 C   0  0  0  0  0  0  0  0  0  0  0  0
   -8.1386   -1.5987   -1.0506 C   0  0  0  0  0  0  0  0  0  0  0  0
   -9.6254   -1.2515   -1.1514 C   0  0  0  0  0  0  0  0  0  0  0  0
  -10.0734    0.0411   -0.4566 C   0  0  0  0  0  0  0  0  0  0  0  0
   -9.8808    0.0457    1.0663 C   0  0  0  0  0  0  0  0  0  0  0  0
   -8.5901    0.7099    1.5586 C   0  0  0  0  0  0  0  0  0  0  0  0
   -8.6013    2.2293    1.3874 C   0  0  0  0  0  0  0  0  0  0  0  0
   -7.3251    2.8578    1.9255 C   0  0  0  0  0  0  0  0  0  0  0  0
    8.7831   -0.9574    0.4897 C   0  0  0  0  0  0  0  0  0  0  0  0
    8.3534    0.2142   -0.4009 C   0  0  0  0  0  0  0  0  0  0  0  0
    9.3426    0.4367   -1.5430 C   0  0  0  0  0  0  0  0  0  0  0  0
    8.8778    1.4808   -2.5651 C   0  0  0  0  0  0  0  0  0  0  0  0
    8.5724    2.8667   -2.0002 C   0  0  0  0  0  0  0  0  0  0  0  0
    5.1045    2.9027    1.3541 H   0  0  0  0  0  0  0  0  0  0  0  0
    3.7218    1.4631   -0.6043 H   0  0  0  0  0  0  0  0  0  0  0  0
    3.1180    2.6323    0.5735 H   0  0  0  0  0  0  0  0  0  0  0  0
    4.7006    1.3334    3.0388 H   0  0  0  0  0  0  0  0  0  0  0  0
    3.0891    2.0129    3.0468 H   0  0  0  0  0  0  0  0  0  0  0  0
    3.4897    0.4635    4.9344 H   0  0  0  0  0  0  0  0  0  0  0  0
    2.1415   -0.0852    3.9253 H   0  0  0  0  0  0  0  0  0  0  0  0
    3.7271   -0.8827    3.8159 H   0  0  0  0  0  0  0  0  0  0  0  0
    1.3005    1.0630    1.5982 H   0  0  0  0  0  0  0  0  0  0  0  0
    1.6615   -0.6553    1.7216 H   0  0  0  0  0  0  0  0  0  0  0  0
    2.1629   -1.8096   -0.4243 H   0  0  0  0  0  0  0  0  0  0  0  0
    1.3126   -1.0772   -1.7757 H   0  0  0  0  0  0  0  0  0  0  0  0
   -0.1160   -2.7179   -0.6741 H   0  0  0  0  0  0  0  0  0  0  0  0
    0.0604   -1.9129    0.8874 H   0  0  0  0  0  0  0  0  0  0  0  0
   -1.3013   -0.6912   -1.5860 H   0  0  0  0  0  0  0  0  0  0  0  0
   -1.0299    0.1549   -0.0635 H   0  0  0  0  0  0  0  0  0  0  0  0
    3.8777   -1.5094    1.5672 H   0  0  0  0  0  0  0  0  0  0  0  0
    4.2974   -0.8032   -0.0122 H   0  0  0  0  0  0  0  0  0  0  0  0
    7.8703   -0.2130    2.3070 H   0  0  0  0  0  0  0  0  0  0  0  0
    8.2491   -1.9247    2.3563 H   0  0  0  0  0  0  0  0  0  0  0  0
    9.5508    4.5317   -0.9166 H   0  0  0  0  0  0  0  0  0  0  0  0
   -2.1940   -3.3779   -1.1718 H   0  0  0  0  0  0  0  0  0  0  0  0
   -3.7751   -3.5411   -0.4323 H   0  0  0  0  0  0  0  0  0  0  0  0
   -3.5729   -3.1565   -2.9983 H   0  0  0  0  0  0  0  0  0  0  0  0
   -3.2748   -1.4669   -2.6543 H   0  0  0  0  0  0  0  0  0  0  0  0
   -5.7366   -3.0426   -1.6880 H   0  0  0  0  0  0  0  0  0  0  0  0
   -5.6603   -2.2080   -3.2323 H   0  0  0  0  0  0  0  0  0  0  0  0
   -5.5233   -0.9014   -0.4654 H   0  0  0  0  0  0  0  0  0  0  0  0
   -5.1649   -0.0441   -1.9715 H   0  0  0  0  0  0  0  0  0  0  0  0
   -7.4190    0.4228   -1.3633 H   0  0  0  0  0  0  0  0  0  0  0  0
   -7.4593   -0.5577   -2.8171 H   0  0  0  0  0  0  0  0  0  0  0  0
   -7.9975   -2.5837   -1.5115 H   0  0  0  0  0  0  0  0  0  0  0  0
   -7.8494   -1.7133   -0.0009 H   0  0  0  0  0  0  0  0  0  0  0  0
  -10.1996   -2.0862   -0.7354 H   0  0  0  0  0  0  0  0  0  0  0  0
   -9.9025   -1.1858   -2.2094 H   0  0  0  0  0  0  0  0  0  0  0  0
   -9.6020    0.9093   -0.9296 H   0  0  0  0  0  0  0  0  0  0  0  0
  -11.1509    0.1449   -0.6517 H   0  0  0  0  0  0  0  0  0  0  0  0
  -10.7271    0.5736    1.5203 H   0  0  0  0  0  0  0  0  0  0  0  0
   -9.9274   -0.9759    1.4534 H   0  0  0  0  0  0  0  0  0  0  0  0
   -7.7157    0.2856    1.0569 H   0  0  0  0  0  0  0  0  0  0  0  0
   -8.4738    0.4830    2.6256 H   0  0  0  0  0  0  0  0  0  0  0  0
   -8.7040    2.4965    0.3324 H   0  0  0  0  0  0  0  0  0  0  0  0
   -9.4634    2.6565    1.9127 H   0  0  0  0  0  0  0  0  0  0  0  0
   -7.2057    2.6582    2.9935 H   0  0  0  0  0  0  0  0  0  0  0  0
   -6.4445    2.4715    1.3975 H   0  0  0  0  0  0  0  0  0  0  0  0
   -7.3497    3.9457    1.7868 H   0  0  0  0  0  0  0  0  0  0  0  0
    8.7870   -1.8792   -0.0997 H   0  0  0  0  0  0  0  0  0  0  0  0
    9.8091   -0.7928    0.8374 H   0  0  0  0  0  0  0  0  0  0  0  0
    7.3559    0.0242   -0.8133 H   0  0  0  0  0  0  0  0  0  0  0  0
    8.2846    1.1181    0.2134 H   0  0  0  0  0  0  0  0  0  0  0  0
    9.4927   -0.5067   -2.0788 H   0  0  0  0  0  0  0  0  0  0  0  0
   10.3187    0.7175   -1.1330 H   0  0  0  0  0  0  0  0  0  0  0  0
    7.9715    1.1034   -3.0559 H   0  0  0  0  0  0  0  0  0  0  0  0
    9.6440    1.5633   -3.3462 H   0  0  0  0  0  0  0  0  0  0  0  0
    7.8110    2.8176   -1.2156 H   0  0  0  0  0  0  0  0  0  0  0  0
    8.1700    3.5004   -2.7986 H   0  0  0  0  0  0  0  0  0  0  0  0
  1  2  1  0
  2  3  1  0
  3  4  1  0
  4  5  1  0
  3  6  1  0
  6  7  1  0
  7  8  1  0
  8  9  1  0
  9 10  1  0
 10 11  1  0
  3 12  1  0
 12 13  1  0
 13 14  1  0
 14 15  1  0
 14 16  2  0
 35 17  1  0
 17 18  2  0
 11 19  1  0
 19 20  1  0
 20 21  1  0
 21 22  1  0
 22 23  1  0
 23 24  1  0
 24 25  1  0
 25 26  1  0
 26 27  1  0
 27 28  1  0
 28 29  1  0
 29 30  1  0
 15 31  1  0
 31 32  1  0
 32 33  1  0
 33 34  1  0
 34 35  1  0
  1 36  1  0
  2 37  1  0
  2 38  1  0
  4 39  1  0
  4 40  1  0
  5 41  1  0
  5 42  1  0
  5 43  1  0
  6 44  1  0
  6 45  1  0
  8 46  1  0
  8 47  1  0
  9 48  1  0
  9 49  1  0
 10 50  1  0
 10 51  1  0
 12 52  1  0
 12 53  1  0
 15 54  1  0
 15 55  1  0
 17 56  1  0
 19 57  1  0
 19 58  1  0
 20 59  1  0
 20 60  1  0
 21 61  1  0
 21 62  1  0
 22 63  1  0
 22 64  1  0
 23 65  1  0
 23 66  1  0
 24 67  1  0
 24 68  1  0
 25 69  1  0
 25 70  1  0
 26 71  1  0
 26 72  1  0
 27 73  1  0
 27 74  1  0
 28 75  1  0
 28 76  1  0
 29 77  1  0
 29 78  1  0
 30 79  1  0
 30 80  1  0
 30 81  1  0
 31 82  1  0
 31 83  1  0
 32 84  1  0
 32 85  1  0
 33 86  1  0
 33 87  1  0
 34 88  1  0
 34 89  1  0
 35 90  1  0
 35 91  1  0
M  STY  1   1 MUL
M  SLB  1   1   1
M  SAL   1  6  15  31  32  33  34  35
M  SPA   1  1  15
M  SBL   1  2  14  16
M  SDI   1  4    1.4800    5.4431    1.4800    6.0206
M  SDI   1  4    2.0987    6.0206    2.0987    5.4431
M  SMT   1 6
M  END
