Yan17si_A3.mol
     RDKit          3D

103102  0  1  0  0  0  0  0  0999 V2000
   -4.2719   -0.0352    2.8453 O   0  0  0  0  0  0  0  0  0  0  0  0
   -3.5228    0.8450    2.0165 C   0  0  0  0  0  0  0  0  0  0  0  0
   -4.3064    1.2727    0.7456 C   0  0  0  0  0  0  0  0  0  0  0  0
   -5.6449    1.9273    1.1966 C   0  0  0  0  0  0  0  0  0  0  0  0
   -6.4878    2.5397    0.0836 C   0  0  0  0  0  0  0  0  0  0  0  0
   -3.4182    2.2666   -0.0457 C   0  0  0  0  0  0  0  0  0  0  0  0
   -3.1259    3.4200    0.7426 O   0  0  0  0  0  0  0  0  0  0  0  0
   -2.3782    4.4187    0.0491 C   0  0  0  0  0  0  0  0  0  0  0  0
   -0.9242    4.0172   -0.2027 C   0  0  0  0  0  0  0  0  0  0  0  0
   -0.2046    3.6462    1.0917 C   0  0  0  0  0  0  0  0  0  0  0  0
    1.3885    2.8022    0.8045 S   0  0  0  0  0  0  0  0  0  0  0  0
   -4.5505    0.0509   -0.1803 C   0  0  0  0  0  0  0  0  0  0  0  0
   -5.3631   -0.9541    0.4413 O   0  0  0  0  0  0  0  0  0  0  0  0
   -6.4893   -1.3525   -0.2072 C   0  0  0  0  0  0  0  0  0  0  0  0
   -7.1767   -2.4221    0.6135 C   0  0  0  0  0  0  0  0  0  0  0  0
   -6.8907   -0.9059   -1.2727 O   0  0  0  0  0  0  0  0  0  0  0  0
  -12.5753   -2.6797   -1.7605 C   0  0  0  0  0  0  0  0  0  0  0  0
  -12.6184   -3.7618   -2.3381 O   0  0  0  0  0  0  0  0  0  0  0  0
    2.3454    4.1254   -0.0109 C   0  0  0  0  0  0  0  0  0  0  0  0
    2.3957    4.0058   -1.5388 C   0  0  0  0  0  0  0  0  0  0  0  0
    2.9034    2.6680   -2.0803 C   0  0  0  0  0  0  0  0  0  0  0  0
    4.3248    2.3513   -1.6553 C   0  0  0  0  0  0  0  0  0  0  0  0
    4.6230    1.0089   -1.7369 N   0  0  0  0  0  0  0  0  0  0  0  0
    5.1354    3.2074   -1.3191 O   0  0  0  0  0  0  0  0  0  0  0  0
    5.9102    0.4774   -1.3309 C   0  0  0  0  0  0  0  0  0  0  0  0
    5.9907    0.2852    0.1777 C   0  0  0  0  0  0  0  0  0  0  0  0
    7.3814   -0.1153    0.6985 C   0  0  0  0  0  0  0  0  0  0  0  0
    7.9443   -1.4311    0.3513 N   0  0  0  0  0  0  0  0  0  0  0  0
    7.0245   -2.5610    0.5448 C   0  0  0  0  0  0  0  0  0  0  0  0
    8.6396   -1.5052   -0.9415 C   0  0  0  0  0  0  0  0  0  0  0  0
    9.9392   -0.6852   -0.9846 C   0  0  0  0  0  0  0  0  0  0  0  0
    6.5527   -2.7583    1.9963 C   0  0  0  0  0  0  0  0  0  0  0  0
   10.6701   -0.7773   -2.3301 C   0  0  0  0  0  0  0  0  0  0  0  0
   11.1840   -2.1706   -2.6569 C   0  0  0  0  0  0  0  0  0  0  0  0
    7.6750   -2.9368    3.0241 C   0  0  0  0  0  0  0  0  0  0  0  0
    8.5408   -4.1622    2.7731 C   0  0  0  0  0  0  0  0  0  0  0  0
   -8.1674   -3.2656   -0.1884 C   0  0  0  0  0  0  0  0  0  0  0  0
   -9.4932   -2.5816   -0.5450 C   0  0  0  0  0  0  0  0  0  0  0  0
  -10.3414   -2.2178    0.6756 C   0  0  0  0  0  0  0  0  0  0  0  0
  -11.6870   -1.5707    0.3209 C   0  0  0  0  0  0  0  0  0  0  0  0
  -12.7141   -2.5350   -0.2690 C   0  0  0  0  0  0  0  0  0  0  0  0
   -3.7233   -0.2272    3.6248 H   0  0  0  0  0  0  0  0  0  0  0  0
   -3.2622    1.7177    2.6255 H   0  0  0  0  0  0  0  0  0  0  0  0
   -2.5906    0.3381    1.7419 H   0  0  0  0  0  0  0  0  0  0  0  0
   -6.2630    1.1887    1.7211 H   0  0  0  0  0  0  0  0  0  0  0  0
   -5.4387    2.7170    1.9308 H   0  0  0  0  0  0  0  0  0  0  0  0
   -5.9715    3.3760   -0.3942 H   0  0  0  0  0  0  0  0  0  0  0  0
   -7.4230    2.9294    0.4993 H   0  0  0  0  0  0  0  0  0  0  0  0
   -6.7489    1.8070   -0.6830 H   0  0  0  0  0  0  0  0  0  0  0  0
   -2.4799    1.7696   -0.3166 H   0  0  0  0  0  0  0  0  0  0  0  0
   -3.9068    2.5745   -0.9769 H   0  0  0  0  0  0  0  0  0  0  0  0
   -2.8792    4.6711   -0.8932 H   0  0  0  0  0  0  0  0  0  0  0  0
   -2.3987    5.3200    0.6724 H   0  0  0  0  0  0  0  0  0  0  0  0
   -0.8955    3.1756   -0.9036 H   0  0  0  0  0  0  0  0  0  0  0  0
   -0.4167    4.8595   -0.6859 H   0  0  0  0  0  0  0  0  0  0  0  0
   -0.8100    2.9504    1.6821 H   0  0  0  0  0  0  0  0  0  0  0  0
   -0.0378    4.5324    1.7128 H   0  0  0  0  0  0  0  0  0  0  0  0
   -4.9635    0.3757   -1.1426 H   0  0  0  0  0  0  0  0  0  0  0  0
   -3.5904   -0.4287   -0.4088 H   0  0  0  0  0  0  0  0  0  0  0  0
   -7.6456   -1.9523    1.4818 H   0  0  0  0  0  0  0  0  0  0  0  0
   -6.3953   -3.0983    0.9820 H   0  0  0  0  0  0  0  0  0  0  0  0
  -12.5023   -1.7410   -2.3342 H   0  0  0  0  0  0  0  0  0  0  0  0
    1.9404    5.1011    0.2753 H   0  0  0  0  0  0  0  0  0  0  0  0
    3.3579    4.0847    0.3987 H   0  0  0  0  0  0  0  0  0  0  0  0
    1.3993    4.1888   -1.9557 H   0  0  0  0  0  0  0  0  0  0  0  0
    3.0342    4.8128   -1.9195 H   0  0  0  0  0  0  0  0  0  0  0  0
    2.2333    1.8528   -1.7906 H   0  0  0  0  0  0  0  0  0  0  0  0
    2.9018    2.7066   -3.1758 H   0  0  0  0  0  0  0  0  0  0  0  0
    3.8715    0.3531   -1.9068 H   0  0  0  0  0  0  0  0  0  0  0  0
    6.0104   -0.4779   -1.8498 H   0  0  0  0  0  0  0  0  0  0  0  0
    6.6965    1.1551   -1.6791 H   0  0  0  0  0  0  0  0  0  0  0  0
    5.2296   -0.4343    0.4988 H   0  0  0  0  0  0  0  0  0  0  0  0
    5.7165    1.2266    0.6719 H   0  0  0  0  0  0  0  0  0  0  0  0
    7.3277   -0.0726    1.7939 H   0  0  0  0  0  0  0  0  0  0  0  0
    8.0865    0.6849    0.4523 H   0  0  0  0  0  0  0  0  0  0  0  0
    6.1508   -2.4691   -0.1125 H   0  0  0  0  0  0  0  0  0  0  0  0
    7.5208   -3.4929    0.2413 H   0  0  0  0  0  0  0  0  0  0  0  0
    7.9883   -1.2182   -1.7709 H   0  0  0  0  0  0  0  0  0  0  0  0
    8.9197   -2.5512   -1.1227 H   0  0  0  0  0  0  0  0  0  0  0  0
   10.6104   -1.0156   -0.1816 H   0  0  0  0  0  0  0  0  0  0  0  0
    9.7294    0.3740   -0.8060 H   0  0  0  0  0  0  0  0  0  0  0  0
    5.9025   -3.6418    2.0279 H   0  0  0  0  0  0  0  0  0  0  0  0
    5.9255   -1.9142    2.3055 H   0  0  0  0  0  0  0  0  0  0  0  0
   11.5225   -0.0884   -2.3052 H   0  0  0  0  0  0  0  0  0  0  0  0
   10.0103   -0.4335   -3.1346 H   0  0  0  0  0  0  0  0  0  0  0  0
   11.7929   -2.1395   -3.5659 H   0  0  0  0  0  0  0  0  0  0  0  0
   11.8072   -2.5601   -1.8460 H   0  0  0  0  0  0  0  0  0  0  0  0
   10.3636   -2.8714   -2.8350 H   0  0  0  0  0  0  0  0  0  0  0  0
    7.2211   -3.0299    4.0183 H   0  0  0  0  0  0  0  0  0  0  0  0
    8.3099   -2.0443    3.0562 H   0  0  0  0  0  0  0  0  0  0  0  0
    7.9306   -5.0706    2.7283 H   0  0  0  0  0  0  0  0  0  0  0  0
    9.1027   -4.0738    1.8379 H   0  0  0  0  0  0  0  0  0  0  0  0
    9.2680   -4.2810    3.5816 H   0  0  0  0  0  0  0  0  0  0  0  0
   -7.6880   -3.5930   -1.1202 H   0  0  0  0  0  0  0  0  0  0  0  0
   -8.3915   -4.1751    0.3837 H   0  0  0  0  0  0  0  0  0  0  0  0
  -10.0492   -3.2782   -1.1804 H   0  0  0  0  0  0  0  0  0  0  0  0
   -9.3146   -1.6864   -1.1499 H   0  0  0  0  0  0  0  0  0  0  0  0
  -10.5113   -3.1093    1.2915 H   0  0  0  0  0  0  0  0  0  0  0  0
   -9.7908   -1.5022    1.2979 H   0  0  0  0  0  0  0  0  0  0  0  0
  -12.1076   -1.1683    1.2512 H   0  0  0  0  0  0  0  0  0  0  0  0
  -11.5254   -0.7150   -0.3454 H   0  0  0  0  0  0  0  0  0  0  0  0
  -13.7212   -2.1372   -0.0937 H   0  0  0  0  0  0  0  0  0  0  0  0
  -12.6558   -3.5211    0.2020 H   0  0  0  0  0  0  0  0  0  0  0  0
  1  2  1  0
  2  3  1  0
  3  4  1  0
  4  5  1  0
  3  6  1  0
  6  7  1  0
  7  8  1  0
  8  9  1  0
  9 10  1  0
 10 11  1  0
  3 12  1  0
 12 13  1  0
 13 14  1  0
 14 15  1  0
 14 16  2  0
 41 17  1  0
 17 18  2  0
 11 19  1  0
 19 20  1  0
 20 21  1  0
 21 22  1  0
 22 23  1  0
 22 24  2  0
 23 25  1  0
 25 26  1  0
 26 27  1  0
 27 28  1  0
 28 29  1  0
 28 30  1  0
 30 31  1  0
 29 32  1  0
 31 33  1  0
 33 34  1  0
 32 35  1  0
 35 36  1  0
 15 37  1  0
 37 38  1  0
 38 39  1  0
 39 40  1  0
 40 41  1  0
  1 42  1  0
  2 43  1  0
  2 44  1  0
  4 45  1  0
  4 46  1  0
  5 47  1  0
  5 48  1  0
  5 49  1  0
  6 50  1  0
  6 51  1  0
  8 52  1  0
  8 53  1  0
  9 54  1  0
  9 55  1  0
 10 56  1  0
 10 57  1  0
 12 58  1  0
 12 59  1  0
 15 60  1  0
 15 61  1  0
 17 62  1  0
 19 63  1  0
 19 64  1  0
 20 65  1  0
 20 66  1  0
 21 67  1  0
 21 68  1  0
 23 69  1  0
 25 70  1  0
 25 71  1  0
 26 72  1  0
 26 73  1  0
 27 74  1  0
 27 75  1  0
 29 76  1  0
 29 77  1  0
 30 78  1  0
 30 79  1  0
 31 80  1  0
 31 81  1  0
 32 82  1  0
 32 83  1  0
 33 84  1  0
 33 85  1  0
 34 86  1  0
 34 87  1  0
 34 88  1  0
 35 89  1  0
 35 90  1  0
 36 91  1  0
 36 92  1  0
 36 93  1  0
 37 94  1  0
 37 95  1  0
 38 96  1  0
 38 97  1  0
 39 98  1  0
 39 99  1  0
 40100  1  0
 40101  1  0
 41102  1  0
 41103  1  0
M  STY  1   1 MUL
M  SLB  1   1   1
M  SAL   1  6  15  37  38  39  40  41
M  SPA   1  1  15
M  SBL   1  2  14  16
M  SDI   1  4    2.0885    5.3457    2.0885    5.9232
M  SDI   1  4    2.7073    5.9232    2.7073    5.3457
M  SMT   1 6
M  END
