Yan17si_A4.mol
     RDKit          3D

 93 92  0  1  0  0  0  0  0  0999 V2000
   -5.2011    3.6689    3.6744 O   0  0  0  0  0  0  0  0  0  0  0  0
   -4.0799    3.3223    2.8646 C   0  0  0  0  0  0  0  0  0  0  0  0
   -4.4924    3.0287    1.3963 C   0  0  0  0  0  0  0  0  0  0  0  0
   -5.2696    4.2613    0.8377 C   0  0  0  0  0  0  0  0  0  0  0  0
   -5.4708    4.3456   -0.6721 C   0  0  0  0  0  0  0  0  0  0  0  0
   -3.2097    2.7721    0.5715 C   0  0  0  0  0  0  0  0  0  0  0  0
   -2.4166    1.7712    1.2055 O   0  0  0  0  0  0  0  0  0  0  0  0
   -1.2092    1.4608    0.5100 C   0  0  0  0  0  0  0  0  0  0  0  0
   -0.1255    2.4911    0.8241 C   0  0  0  0  0  0  0  0  0  0  0  0
    1.2286    2.0459    0.2840 C   0  0  0  0  0  0  0  0  0  0  0  0
    2.5240    3.3078    0.5538 S   0  0  0  0  0  0  0  0  0  0  0  0
   -5.3816    1.7571    1.4178 C   0  0  0  0  0  0  0  0  0  0  0  0
   -5.8670    1.4251    0.1060 O   0  0  0  0  0  0  0  0  0  0  0  0
   -5.4968    0.2260   -0.4249 C   0  0  0  0  0  0  0  0  0  0  0  0
   -6.1379    0.0839   -1.7889 C   0  0  0  0  0  0  0  0  0  0  0  0
   -4.7529   -0.5889    0.0979 O   0  0  0  0  0  0  0  0  0  0  0  0
   -8.8108   -5.1256   -2.2725 C   0  0  0  0  0  0  0  0  0  0  0  0
   -8.3812   -5.4583   -3.3733 O   0  0  0  0  0  0  0  0  0  0  0  0
    2.7423    3.1943    2.3600 C   0  0  0  0  0  0  0  0  0  0  0  0
    3.3555    1.8918    2.8833 C   0  0  0  0  0  0  0  0  0  0  0  0
    4.7628    1.6083    2.3527 C   0  0  0  0  0  0  0  0  0  0  0  0
    4.7853    0.7669    1.0879 C   0  0  0  0  0  0  0  0  0  0  0  0
    5.9353    0.9454    0.3456 N   0  0  0  0  0  0  0  0  0  0  0  0
    3.9086   -0.0397    0.8001 O   0  0  0  0  0  0  0  0  0  0  0  0
    6.1018    0.2994   -0.9444 C   0  0  0  0  0  0  0  0  0  0  0  0
    7.5748    0.1987   -1.3367 C   0  0  0  0  0  0  0  0  0  0  0  0
    8.3445   -0.8480   -0.5196 C   0  0  0  0  0  0  0  0  0  0  0  0
    7.9514   -2.2245   -0.8993 N   0  0  0  0  0  0  0  0  0  0  0  0
    9.0234   -2.9002   -1.6740 C   0  0  0  0  0  0  0  0  0  0  0  0
    7.5937   -2.9936    0.3207 C   0  0  0  0  0  0  0  0  0  0  0  0
    6.9363   -4.3497    0.0117 C   0  0  0  0  0  0  0  0  0  0  0  0
    9.2966   -2.2919   -3.0623 C   0  0  0  0  0  0  0  0  0  0  0  0
    5.9492   -4.2016   -1.0083 O   0  0  0  0  0  0  0  0  0  0  0  0
   10.1418   -1.1497   -2.9756 O   0  0  0  0  0  0  0  0  0  0  0  0
   -5.9520   -1.2925   -2.4292 C   0  0  0  0  0  0  0  0  0  0  0  0
   -7.0409   -2.3143   -2.0743 C   0  0  0  0  0  0  0  0  0  0  0  0
   -7.0033   -2.7815   -0.6189 C   0  0  0  0  0  0  0  0  0  0  0  0
   -8.0841   -3.8103   -0.2608 C   0  0  0  0  0  0  0  0  0  0  0  0
   -7.9753   -5.1321   -1.0181 C   0  0  0  0  0  0  0  0  0  0  0  0
   -5.4277    4.5951    3.4866 H   0  0  0  0  0  0  0  0  0  0  0  0
   -3.6100    2.4491    3.3296 H   0  0  0  0  0  0  0  0  0  0  0  0
   -3.3586    4.1460    2.9161 H   0  0  0  0  0  0  0  0  0  0  0  0
   -4.7366    5.1744    1.1378 H   0  0  0  0  0  0  0  0  0  0  0  0
   -6.2567    4.3176    1.3150 H   0  0  0  0  0  0  0  0  0  0  0  0
   -6.0577    3.5132   -1.0639 H   0  0  0  0  0  0  0  0  0  0  0  0
   -6.0143    5.2652   -0.9169 H   0  0  0  0  0  0  0  0  0  0  0  0
   -4.5163    4.3844   -1.2062 H   0  0  0  0  0  0  0  0  0  0  0  0
   -3.4531    2.4414   -0.4437 H   0  0  0  0  0  0  0  0  0  0  0  0
   -2.6329    3.7001    0.4989 H   0  0  0  0  0  0  0  0  0  0  0  0
   -0.8902    0.4752    0.8669 H   0  0  0  0  0  0  0  0  0  0  0  0
   -1.3934    1.3763   -0.5674 H   0  0  0  0  0  0  0  0  0  0  0  0
   -0.0910    2.6383    1.9093 H   0  0  0  0  0  0  0  0  0  0  0  0
   -0.4043    3.4590    0.3919 H   0  0  0  0  0  0  0  0  0  0  0  0
    1.1596    1.8893   -0.7982 H   0  0  0  0  0  0  0  0  0  0  0  0
    1.5323    1.0935    0.7252 H   0  0  0  0  0  0  0  0  0  0  0  0
   -4.8531    0.9165    1.8817 H   0  0  0  0  0  0  0  0  0  0  0  0
   -6.2737    1.9349    2.0299 H   0  0  0  0  0  0  0  0  0  0  0  0
   -5.6604    0.8344   -2.4320 H   0  0  0  0  0  0  0  0  0  0  0  0
   -7.2043    0.3253   -1.7109 H   0  0  0  0  0  0  0  0  0  0  0  0
   -9.8717   -4.8497   -2.1428 H   0  0  0  0  0  0  0  0  0  0  0  0
    1.7834    3.3778    2.8548 H   0  0  0  0  0  0  0  0  0  0  0  0
    3.3909    4.0305    2.6481 H   0  0  0  0  0  0  0  0  0  0  0  0
    2.6782    1.0487    2.7093 H   0  0  0  0  0  0  0  0  0  0  0  0
    3.4293    1.9944    3.9746 H   0  0  0  0  0  0  0  0  0  0  0  0
    5.3164    2.5434    2.2071 H   0  0  0  0  0  0  0  0  0  0  0  0
    5.3112    1.0249    3.1039 H   0  0  0  0  0  0  0  0  0  0  0  0
    6.4513    1.8028    0.4994 H   0  0  0  0  0  0  0  0  0  0  0  0
    5.5701    0.9218   -1.6729 H   0  0  0  0  0  0  0  0  0  0  0  0
    5.6167   -0.6820   -0.9361 H   0  0  0  0  0  0  0  0  0  0  0  0
    8.0574    1.1754   -1.1993 H   0  0  0  0  0  0  0  0  0  0  0  0
    7.6415   -0.0328   -2.4052 H   0  0  0  0  0  0  0  0  0  0  0  0
    9.4233   -0.6894   -0.6341 H   0  0  0  0  0  0  0  0  0  0  0  0
    8.1576   -0.6544    0.5453 H   0  0  0  0  0  0  0  0  0  0  0  0
    9.9502   -2.9348   -1.0894 H   0  0  0  0  0  0  0  0  0  0  0  0
    8.7184   -3.9337   -1.8676 H   0  0  0  0  0  0  0  0  0  0  0  0
    8.4581   -3.1317    0.9819 H   0  0  0  0  0  0  0  0  0  0  0  0
    6.8436   -2.4120    0.8750 H   0  0  0  0  0  0  0  0  0  0  0  0
    7.6731   -5.0861   -0.3255 H   0  0  0  0  0  0  0  0  0  0  0  0
    6.4476   -4.7502    0.9054 H   0  0  0  0  0  0  0  0  0  0  0  0
    9.8072   -3.0331   -3.6857 H   0  0  0  0  0  0  0  0  0  0  0  0
    8.3634   -2.0154   -3.5625 H   0  0  0  0  0  0  0  0  0  0  0  0
    6.1961   -3.3822   -1.4807 H   0  0  0  0  0  0  0  0  0  0  0  0
   10.3264   -0.8669   -3.8889 H   0  0  0  0  0  0  0  0  0  0  0  0
   -5.9837   -1.1567   -3.5182 H   0  0  0  0  0  0  0  0  0  0  0  0
   -4.9624   -1.7054   -2.1988 H   0  0  0  0  0  0  0  0  0  0  0  0
   -8.0293   -1.8984   -2.3066 H   0  0  0  0  0  0  0  0  0  0  0  0
   -6.8967   -3.1761   -2.7352 H   0  0  0  0  0  0  0  0  0  0  0  0
   -6.0160   -3.2036   -0.3956 H   0  0  0  0  0  0  0  0  0  0  0  0
   -7.1422   -1.9213    0.0451 H   0  0  0  0  0  0  0  0  0  0  0  0
   -9.0745   -3.3607   -0.3963 H   0  0  0  0  0  0  0  0  0  0  0  0
   -7.9805   -4.0247    0.8106 H   0  0  0  0  0  0  0  0  0  0  0  0
   -8.3725   -5.9408   -0.3929 H   0  0  0  0  0  0  0  0  0  0  0  0
   -6.9369   -5.3767   -1.2650 H   0  0  0  0  0  0  0  0  0  0  0  0
  1  2  1  0
  2  3  1  0
  3  4  1  0
  4  5  1  0
  3  6  1  0
  6  7  1  0
  7  8  1  0
  8  9  1  0
  9 10  1  0
 10 11  1  0
  3 12  1  0
 12 13  1  0
 13 14  1  0
 14 15  1  0
 14 16  2  0
 39 17  1  0
 17 18  2  0
 11 19  1  0
 19 20  1  0
 20 21  1  0
 21 22  1  0
 22 23  1  0
 22 24  2  0
 23 25  1  0
 25 26  1  0
 26 27  1  0
 27 28  1  0
 28 29  1  0
 28 30  1  0
 30 31  1  0
 29 32  1  0
 31 33  1  0
 32 34  1  0
 15 35  1  0
 35 36  1  0
 36 37  1  0
 37 38  1  0
 38 39  1  0
  1 40  1  0
  2 41  1  0
  2 42  1  0
  4 43  1  0
  4 44  1  0
  5 45  1  0
  5 46  1  0
  5 47  1  0
  6 48  1  0
  6 49  1  0
  8 50  1  0
  8 51  1  0
  9 52  1  0
  9 53  1  0
 10 54  1  0
 10 55  1  0
 12 56  1  0
 12 57  1  0
 15 58  1  0
 15 59  1  0
 17 60  1  0
 19 61  1  0
 19 62  1  0
 20 63  1  0
 20 64  1  0
 21 65  1  0
 21 66  1  0
 23 67  1  0
 25 68  1  0
 25 69  1  0
 26 70  1  0
 26 71  1  0
 27 72  1  0
 27 73  1  0
 29 74  1  0
 29 75  1  0
 30 76  1  0
 30 77  1  0
 31 78  1  0
 31 79  1  0
 32 80  1  0
 32 81  1  0
 33 82  1  0
 34 83  1  0
 35 84  1  0
 35 85  1  0
 36 86  1  0
 36 87  1  0
 37 88  1  0
 37 89  1  0
 38 90  1  0
 38 91  1  0
 39 92  1  0
 39 93  1  0
M  STY  1   1 MUL
M  SLB  1   1   1
M  SAL   1  6  15  35  36  37  38  39
M  SPA   1  1  15
M  SBL   1  2  14  16
M  SDI   1  4    2.0885    5.3457    2.0885    5.9232
M  SDI   1  4    2.7073    5.9232    2.7073    5.3457
M  SMT   1 6
M  END
