Yan17si_C10-SH.mol
     RDKit          3D

 85 84  0  1  0  0  0  0  0  0999 V2000
   -3.1340    0.9658    0.4836 O   0  0  0  0  0  0  0  0  0  0  0  0
   -3.2875   -0.4324    0.7144 C   0  0  0  0  0  0  0  0  0  0  0  0
   -3.1652   -1.2391   -0.6007 C   0  0  0  0  0  0  0  0  0  0  0  0
   -3.3806   -2.7382   -0.2317 C   0  0  0  0  0  0  0  0  0  0  0  0
   -3.3302   -3.7136   -1.4014 C   0  0  0  0  0  0  0  0  0  0  0  0
   -1.7689   -1.0013   -1.2258 C   0  0  0  0  0  0  0  0  0  0  0  0
   -0.7502   -1.5233   -0.3711 O   0  0  0  0  0  0  0  0  0  0  0  0
    0.5627   -1.4344   -0.9226 C   0  0  0  0  0  0  0  0  0  0  0  0
    1.1606   -0.0327   -0.7938 C   0  0  0  0  0  0  0  0  0  0  0  0
    1.2133    0.4987    0.6385 C   0  0  0  0  0  0  0  0  0  0  0  0
    2.3866   -0.4105    1.7037 S   0  0  0  0  0  0  0  0  0  0  0  0
   -4.2194   -0.7436   -1.6187 C   0  0  0  0  0  0  0  0  0  0  0  0
   -5.5466   -1.0327   -1.1502 O   0  0  0  0  0  0  0  0  0  0  0  0
   -6.5342   -0.6821   -2.0208 C   0  0  0  0  0  0  0  0  0  0  0  0
   -7.8781   -1.0774   -1.4529 C   0  0  0  0  0  0  0  0  0  0  0  0
   -6.3582   -0.1620   -3.1144 O   0  0  0  0  0  0  0  0  0  0  0  0
   -8.6355    0.9307    2.8517 C   0  0  0  0  0  0  0  0  0  0  0  0
   -8.0162    0.4181    3.7832 O   0  0  0  0  0  0  0  0  0  0  0  0
    3.8132    0.7271    1.6870 C   0  0  0  0  0  0  0  0  0  0  0  0
    4.5746    0.8145    0.3631 C   0  0  0  0  0  0  0  0  0  0  0  0
    5.1259   -0.5042   -0.1935 C   0  0  0  0  0  0  0  0  0  0  0  0
    6.0413   -1.2926    0.7480 C   0  0  0  0  0  0  0  0  0  0  0  0
    7.2846   -0.5507    1.2478 C   0  0  0  0  0  0  0  0  0  0  0  0
    8.2127   -0.0848    0.1234 C   0  0  0  0  0  0  0  0  0  0  0  0
    9.5352    0.4523    0.6805 C   0  0  0  0  0  0  0  0  0  0  0  0
   10.4364    0.9775   -0.4397 C   0  0  0  0  0  0  0  0  0  0  0  0
   11.8407    1.3583    0.0349 C   0  0  0  0  0  0  0  0  0  0  0  0
   11.8556    2.4896    1.0514 C   0  0  0  0  0  0  0  0  0  0  0  0
   -9.0227   -0.2416   -2.0186 C   0  0  0  0  0  0  0  0  0  0  0  0
   -8.9930    1.2510   -1.6590 C   0  0  0  0  0  0  0  0  0  0  0  0
   -9.2146    1.5519   -0.1709 C   0  0  0  0  0  0  0  0  0  0  0  0
   -7.9097    1.7835    0.6038 C   0  0  0  0  0  0  0  0  0  0  0  0
   -8.1486    2.1264    2.0742 C   0  0  0  0  0  0  0  0  0  0  0  0
   -3.2127    1.3978    1.3525 H   0  0  0  0  0  0  0  0  0  0  0  0
   -2.5243   -0.7391    1.4385 H   0  0  0  0  0  0  0  0  0  0  0  0
   -4.2692   -0.5857    1.1770 H   0  0  0  0  0  0  0  0  0  0  0  0
   -4.3491   -2.8602    0.2710 H   0  0  0  0  0  0  0  0  0  0  0  0
   -2.6257   -3.0510    0.5024 H   0  0  0  0  0  0  0  0  0  0  0  0
   -2.3739   -3.6654   -1.9301 H   0  0  0  0  0  0  0  0  0  0  0  0
   -4.1364   -3.5216   -2.1153 H   0  0  0  0  0  0  0  0  0  0  0  0
   -3.4507   -4.7401   -1.0354 H   0  0  0  0  0  0  0  0  0  0  0  0
   -1.6015    0.0687   -1.3884 H   0  0  0  0  0  0  0  0  0  0  0  0
   -1.7009   -1.4953   -2.2025 H   0  0  0  0  0  0  0  0  0  0  0  0
    1.1854   -2.1597   -0.3881 H   0  0  0  0  0  0  0  0  0  0  0  0
    0.5519   -1.7496   -1.9727 H   0  0  0  0  0  0  0  0  0  0  0  0
    2.1569   -0.0240   -1.2488 H   0  0  0  0  0  0  0  0  0  0  0  0
    0.5526    0.6667   -1.3796 H   0  0  0  0  0  0  0  0  0  0  0  0
    1.4771    1.5614    0.6300 H   0  0  0  0  0  0  0  0  0  0  0  0
    0.2240    0.4292    1.1035 H   0  0  0  0  0  0  0  0  0  0  0  0
   -4.0707   -1.2406   -2.5857 H   0  0  0  0  0  0  0  0  0  0  0  0
   -4.1270    0.3371   -1.7796 H   0  0  0  0  0  0  0  0  0  0  0  0
   -8.0379   -2.1312   -1.7091 H   0  0  0  0  0  0  0  0  0  0  0  0
   -7.8603   -1.0097   -0.3609 H   0  0  0  0  0  0  0  0  0  0  0  0
   -9.6200    0.5316    2.5542 H   0  0  0  0  0  0  0  0  0  0  0  0
    3.4653    1.7246    1.9777 H   0  0  0  0  0  0  0  0  0  0  0  0
    4.4913    0.3993    2.4817 H   0  0  0  0  0  0  0  0  0  0  0  0
    3.9329    1.2742   -0.3985 H   0  0  0  0  0  0  0  0  0  0  0  0
    5.4072    1.5168    0.4970 H   0  0  0  0  0  0  0  0  0  0  0  0
    5.6650   -0.2868   -1.1240 H   0  0  0  0  0  0  0  0  0  0  0  0
    4.2933   -1.1553   -0.4867 H   0  0  0  0  0  0  0  0  0  0  0  0
    5.4663   -1.6350    1.6163 H   0  0  0  0  0  0  0  0  0  0  0  0
    6.3623   -2.2039    0.2274 H   0  0  0  0  0  0  0  0  0  0  0  0
    7.8365   -1.2293    1.9110 H   0  0  0  0  0  0  0  0  0  0  0  0
    6.9900    0.3082    1.8621 H   0  0  0  0  0  0  0  0  0  0  0  0
    7.7225    0.6998   -0.4647 H   0  0  0  0  0  0  0  0  0  0  0  0
    8.4187   -0.9208   -0.5566 H   0  0  0  0  0  0  0  0  0  0  0  0
   10.0521   -0.3476    1.2254 H   0  0  0  0  0  0  0  0  0  0  0  0
    9.3256    1.2539    1.3982 H   0  0  0  0  0  0  0  0  0  0  0  0
    9.9634    1.8466   -0.9148 H   0  0  0  0  0  0  0  0  0  0  0  0
   10.5342    0.2087   -1.2159 H   0  0  0  0  0  0  0  0  0  0  0  0
   12.4286    1.6659   -0.8382 H   0  0  0  0  0  0  0  0  0  0  0  0
   12.3413    0.4798    0.4567 H   0  0  0  0  0  0  0  0  0  0  0  0
   11.4134    2.1777    2.0029 H   0  0  0  0  0  0  0  0  0  0  0  0
   12.8873    2.8044    1.2516 H   0  0  0  0  0  0  0  0  0  0  0  0
   11.3039    3.3586    0.6784 H   0  0  0  0  0  0  0  0  0  0  0  0
   -9.0276   -0.3301   -3.1128 H   0  0  0  0  0  0  0  0  0  0  0  0
   -9.9718   -0.6724   -1.6760 H   0  0  0  0  0  0  0  0  0  0  0  0
   -8.0737    1.7267   -2.0223 H   0  0  0  0  0  0  0  0  0  0  0  0
   -9.8170    1.7188   -2.2167 H   0  0  0  0  0  0  0  0  0  0  0  0
   -9.8137    2.4692   -0.0969 H   0  0  0  0  0  0  0  0  0  0  0  0
   -9.8099    0.7547    0.2872 H   0  0  0  0  0  0  0  0  0  0  0  0
   -7.3714    2.6190    0.1404 H   0  0  0  0  0  0  0  0  0  0  0  0
   -7.2563    0.9096    0.5350 H   0  0  0  0  0  0  0  0  0  0  0  0
   -7.2113    2.4668    2.5289 H   0  0  0  0  0  0  0  0  0  0  0  0
   -8.8864    2.9301    2.1814 H   0  0  0  0  0  0  0  0  0  0  0  0
  1  2  1  0
  2  3  1  0
  3  4  1  0
  4  5  1  0
  3  6  1  0
  6  7  1  0
  7  8  1  0
  8  9  1  0
  9 10  1  0
 10 11  1  0
  3 12  1  0
 12 13  1  0
 13 14  1  0
 14 15  1  0
 14 16  2  0
 33 17  1  0
 17 18  2  0
 11 19  1  0
 19 20  1  0
 20 21  1  0
 21 22  1  0
 22 23  1  0
 23 24  1  0
 24 25  1  0
 25 26  1  0
 26 27  1  0
 27 28  1  0
 15 29  1  0
 29 30  1  0
 30 31  1  0
 31 32  1  0
 32 33  1  0
  1 34  1  0
  2 35  1  0
  2 36  1  0
  4 37  1  0
  4 38  1  0
  5 39  1  0
  5 40  1  0
  5 41  1  0
  6 42  1  0
  6 43  1  0
  8 44  1  0
  8 45  1  0
  9 46  1  0
  9 47  1  0
 10 48  1  0
 10 49  1  0
 12 50  1  0
 12 51  1  0
 15 52  1  0
 15 53  1  0
 17 54  1  0
 19 55  1  0
 19 56  1  0
 20 57  1  0
 20 58  1  0
 21 59  1  0
 21 60  1  0
 22 61  1  0
 22 62  1  0
 23 63  1  0
 23 64  1  0
 24 65  1  0
 24 66  1  0
 25 67  1  0
 25 68  1  0
 26 69  1  0
 26 70  1  0
 27 71  1  0
 27 72  1  0
 28 73  1  0
 28 74  1  0
 28 75  1  0
 29 76  1  0
 29 77  1  0
 30 78  1  0
 30 79  1  0
 31 80  1  0
 31 81  1  0
 32 82  1  0
 32 83  1  0
 33 84  1  0
 33 85  1  0
M  STY  1   1 MUL
M  SLB  1   1   1
M  SAL   1  6  15  29  30  31  32  33
M  SPA   1  1  15
M  SBL   1  2  14  16
M  SDI   1  4    1.4800    4.7286    1.4800    5.3061
M  SDI   1  4    2.0987    5.3061    2.0987    4.7286
M  SMT   1 6
M  END
