Yan17si_A7.mol
     RDKit          3D

 83 83  0  1  0  0  0  0  0  0999 V2000
   -1.8167    2.7142    0.1969 O   0  0  0  0  0  0  0  0  0  0  0  0
   -2.2757    1.6347   -0.6139 C   0  0  0  0  0  0  0  0  0  0  0  0
   -2.5345    0.3640    0.2344 C   0  0  0  0  0  0  0  0  0  0  0  0
   -3.0379   -0.7376   -0.7444 C   0  0  0  0  0  0  0  0  0  0  0  0
   -3.1950   -2.1316   -0.1503 C   0  0  0  0  0  0  0  0  0  0  0  0
   -1.2199   -0.0493    0.9407 C   0  0  0  0  0  0  0  0  0  0  0  0
   -0.2641   -0.5142   -0.0134 O   0  0  0  0  0  0  0  0  0  0  0  0
    0.9843    0.1737    0.0219 C   0  0  0  0  0  0  0  0  0  0  0  0
    1.8368   -0.2152    1.2304 C   0  0  0  0  0  0  0  0  0  0  0  0
    2.1368   -1.7108    1.3432 C   0  0  0  0  0  0  0  0  0  0  0  0
    3.0884   -2.4523   -0.0289 S   0  0  0  0  0  0  0  0  0  0  0  0
   -3.5784    0.6764    1.3370 C   0  0  0  0  0  0  0  0  0  0  0  0
   -4.7818    1.2521    0.7930 O   0  0  0  0  0  0  0  0  0  0  0  0
   -5.9037    0.4822    0.7915 C   0  0  0  0  0  0  0  0  0  0  0  0
   -7.0720    1.2664    0.2393 C   0  0  0  0  0  0  0  0  0  0  0  0
   -5.9662   -0.6844    1.1527 O   0  0  0  0  0  0  0  0  0  0  0  0
  -12.1007    0.6037   -2.6681 C   0  0  0  0  0  0  0  0  0  0  0  0
  -12.1881    1.8107   -2.4724 O   0  0  0  0  0  0  0  0  0  0  0  0
    4.5827   -1.4028   -0.0697 C   0  0  0  0  0  0  0  0  0  0  0  0
    5.3609   -1.3675    1.2473 C   0  0  0  0  0  0  0  0  0  0  0  0
    6.6514   -0.5533    1.0994 C   0  0  0  0  0  0  0  0  0  0  0  0
    7.7553   -1.3085    0.3678 C   0  0  0  0  0  0  0  0  0  0  0  0
    8.7981   -0.5517   -0.1392 N   0  0  0  0  0  0  0  0  0  0  0  0
    7.7319   -2.5367    0.2759 O   0  0  0  0  0  0  0  0  0  0  0  0
    9.8972   -1.2213   -0.8371 C   0  0  0  0  0  0  0  0  0  0  0  0
   10.4014   -0.4232   -2.0592 C   0  0  0  0  0  0  0  0  0  0  0  0
   10.5992    1.0268   -1.8468 N   0  0  0  0  0  0  0  0  0  0  0  0
   10.2661    1.4525   -0.4782 C   0  0  0  0  0  0  0  0  0  0  0  0
    8.8974    0.9076   -0.0327 C   0  0  0  0  0  0  0  0  0  0  0  0
   11.9336    1.4640   -2.2392 C   0  0  0  0  0  0  0  0  0  0  0  0
   -8.2585    1.3031    1.2007 C   0  0  0  0  0  0  0  0  0  0  0  0
   -9.0418   -0.0079    1.3409 C   0  0  0  0  0  0  0  0  0  0  0  0
   -9.6028   -0.5961    0.0424 C   0  0  0  0  0  0  0  0  0  0  0  0
  -10.5469    0.3552   -0.6956 C   0  0  0  0  0  0  0  0  0  0  0  0
  -11.2130   -0.3331   -1.8845 C   0  0  0  0  0  0  0  0  0  0  0  0
   -1.7252    3.4849   -0.3917 H   0  0  0  0  0  0  0  0  0  0  0  0
   -1.5158    1.4494   -1.3825 H   0  0  0  0  0  0  0  0  0  0  0  0
   -3.1895    1.9613   -1.1226 H   0  0  0  0  0  0  0  0  0  0  0  0
   -3.9992   -0.4332   -1.1786 H   0  0  0  0  0  0  0  0  0  0  0  0
   -2.3471   -0.8161   -1.5948 H   0  0  0  0  0  0  0  0  0  0  0  0
   -2.2342   -2.5422    0.1779 H   0  0  0  0  0  0  0  0  0  0  0  0
   -3.6017   -2.8115   -0.9084 H   0  0  0  0  0  0  0  0  0  0  0  0
   -3.8791   -2.1417    0.7015 H   0  0  0  0  0  0  0  0  0  0  0  0
   -0.8254    0.7778    1.5429 H   0  0  0  0  0  0  0  0  0  0  0  0
   -1.4033   -0.8752    1.6378 H   0  0  0  0  0  0  0  0  0  0  0  0
    1.5124   -0.0713   -0.9043 H   0  0  0  0  0  0  0  0  0  0  0  0
    0.8158    1.2576    0.0013 H   0  0  0  0  0  0  0  0  0  0  0  0
    2.7672    0.3624    1.2173 H   0  0  0  0  0  0  0  0  0  0  0  0
    1.3120    0.0773    2.1477 H   0  0  0  0  0  0  0  0  0  0  0  0
    1.1959   -2.2692    1.4152 H   0  0  0  0  0  0  0  0  0  0  0  0
    2.6748   -1.9090    2.2762 H   0  0  0  0  0  0  0  0  0  0  0  0
   -3.7955   -0.2075    1.9475 H   0  0  0  0  0  0  0  0  0  0  0  0
   -3.1791    1.4240    2.0335 H   0  0  0  0  0  0  0  0  0  0  0  0
   -7.3340    0.8578   -0.7402 H   0  0  0  0  0  0  0  0  0  0  0  0
   -6.7451    2.2987    0.0666 H   0  0  0  0  0  0  0  0  0  0  0  0
  -12.6762    0.1279   -3.4829 H   0  0  0  0  0  0  0  0  0  0  0  0
    5.2144   -1.8010   -0.8699 H   0  0  0  0  0  0  0  0  0  0  0  0
    4.2946   -0.3928   -0.3792 H   0  0  0  0  0  0  0  0  0  0  0  0
    5.5824   -2.3859    1.5903 H   0  0  0  0  0  0  0  0  0  0  0  0
    4.7558   -0.8914    2.0259 H   0  0  0  0  0  0  0  0  0  0  0  0
    7.0406   -0.3200    2.0972 H   0  0  0  0  0  0  0  0  0  0  0  0
    6.4252    0.3907    0.5939 H   0  0  0  0  0  0  0  0  0  0  0  0
    9.5982   -2.2259   -1.1577 H   0  0  0  0  0  0  0  0  0  0  0  0
   10.7080   -1.3406   -0.1075 H   0  0  0  0  0  0  0  0  0  0  0  0
    9.6560   -0.5235   -2.8592 H   0  0  0  0  0  0  0  0  0  0  0  0
   11.3134   -0.9079   -2.4295 H   0  0  0  0  0  0  0  0  0  0  0  0
   10.2368    2.5479   -0.4328 H   0  0  0  0  0  0  0  0  0  0  0  0
   11.0373    1.1162    0.2274 H   0  0  0  0  0  0  0  0  0  0  0  0
    8.1035    1.3324   -0.6630 H   0  0  0  0  0  0  0  0  0  0  0  0
    8.6965    1.2043    1.0034 H   0  0  0  0  0  0  0  0  0  0  0  0
   12.7134    0.9928   -1.6307 H   0  0  0  0  0  0  0  0  0  0  0  0
   12.1207    1.2208   -3.2914 H   0  0  0  0  0  0  0  0  0  0  0  0
   12.0299    2.5516   -2.1479 H   0  0  0  0  0  0  0  0  0  0  0  0
   -7.9079    1.5998    2.1977 H   0  0  0  0  0  0  0  0  0  0  0  0
   -8.9461    2.0928    0.8773 H   0  0  0  0  0  0  0  0  0  0  0  0
   -8.4101   -0.7653    1.8180 H   0  0  0  0  0  0  0  0  0  0  0  0
   -9.8756    0.1667    2.0352 H   0  0  0  0  0  0  0  0  0  0  0  0
   -8.7842   -0.8970   -0.6243 H   0  0  0  0  0  0  0  0  0  0  0  0
  -10.1448   -1.5175    0.2950 H   0  0  0  0  0  0  0  0  0  0  0  0
  -11.3182    0.7239   -0.0064 H   0  0  0  0  0  0  0  0  0  0  0  0
   -9.9930    1.2320   -1.0480 H   0  0  0  0  0  0  0  0  0  0  0  0
  -10.4606   -0.7304   -2.5756 H   0  0  0  0  0  0  0  0  0  0  0  0
  -11.8377   -1.1648   -1.5397 H   0  0  0  0  0  0  0  0  0  0  0  0
  1  2  1  0
  2  3  1  0
  3  4  1  0
  4  5  1  0
  3  6  1  0
  6  7  1  0
  7  8  1  0
  8  9  1  0
  9 10  1  0
 10 11  1  0
  3 12  1  0
 12 13  1  0
 13 14  1  0
 14 15  1  0
 14 16  2  0
 35 17  1  0
 17 18  2  0
 11 19  1  0
 19 20  1  0
 20 21  1  0
 21 22  1  0
 22 23  1  0
 22 24  2  0
 23 25  1  0
 25 26  1  0
 26 27  1  0
 27 28  1  0
 28 29  1  0
 29 23  1  0
 27 30  1  0
 15 31  1  0
 31 32  1  0
 32 33  1  0
 33 34  1  0
 34 35  1  0
  1 36  1  0
  2 37  1  0
  2 38  1  0
  4 39  1  0
  4 40  1  0
  5 41  1  0
  5 42  1  0
  5 43  1  0
  6 44  1  0
  6 45  1  0
  8 46  1  0
  8 47  1  0
  9 48  1  0
  9 49  1  0
 10 50  1  0
 10 51  1  0
 12 52  1  0
 12 53  1  0
 15 54  1  0
 15 55  1  0
 17 56  1  0
 19 57  1  0
 19 58  1  0
 20 59  1  0
 20 60  1  0
 21 61  1  0
 21 62  1  0
 25 63  1  0
 25 64  1  0
 26 65  1  0
 26 66  1  0
 28 67  1  0
 28 68  1  0
 29 69  1  0
 29 70  1  0
 30 71  1  0
 30 72  1  0
 30 73  1  0
 31 74  1  0
 31 75  1  0
 32 76  1  0
 32 77  1  0
 33 78  1  0
 33 79  1  0
 34 80  1  0
 34 81  1  0
 35 82  1  0
 35 83  1  0
M  STY  1   1 MUL
M  SLB  1   1   1
M  SAL   1  6  15  31  32  33  34  35
M  SPA   1  1  15
M  SBL   1  2  14  16
M  SDI   1  4    2.0885    4.1303    2.0885    4.7078
M  SDI   1  4    2.7073    4.7078    2.7073    4.1303
M  SMT   1 6
M  END
